

         NASA-GLENN CHEMICAL EQUILIBRIUM PROGRAM CEA2, FEBRUARY 5, 2004
                   BY  BONNIE MCBRIDE AND SANFORD GORDON
      REFS: NASA RP-1311, PART I, 1994 AND NASA RP-1311, PART II, 1996

 *******************************************************************************

  
 ### CEA analysis performed on Mon 23-Nov-2020 01:46:42
  
 # Problem Type: "Rocket" (Infinite Area Combustor)
  
 prob case=_______________7325 ro equilibrium
  
 # Pressure (6 values):
 p,bar= 50, 60, 70, 80, 90, 100
 # Chamber/Exit Pressure Ratio (10 values):
 pi/p= 110, 120, 130, 140, 150, 160, 170, 180, 190, 200
  
 # Oxidizer/Fuel Wt. ratio (7 values):
 o/f= 2.8, 2.9, 3, 3.1, 3.2, 3.3, 3.4
  
 # You selected the following fuels and oxidizers:
 reac
 fuel CH4               wt%=100.0000  t,k= 300.000
 oxid O2(L)             wt%=100.0000  t,k=  88.000
  
 # You selected these options for output:
 # long version of output
 # Proportions of any products will be expressed as Mass Fractions.
 output massf
 # Heat will be expressed as siunits
 output siunits
 # Plot parameters:
 output plot p gam t ae mach pip isp ivac
  
  
 # Input prepared by this script:prepareInputFile.cgi
  
 ### IMPORTANT:  The following line is the end of your CEA input file!
 end

 OPTIONS: TP=F  HP=F  SP=F  TV=F  UV=F  SV=F  DETN=F  SHOCK=F  REFL=F  INCD=F
 RKT=T  FROZ=F  EQL=T  IONS=F  SIUNIT=T  DEBUGF=F  SHKDBG=F  DETDBG=F  TRNSPT=F

 TRACE= 0.00E+00  S/R= 0.000000E+00  H/R= 0.000000E+00  U/R= 0.000000E+00

 Pc,BAR =    50.000000    60.000000    70.000000    80.000000    90.000000   100.000000

 Pc/P =   110.0000   120.0000   130.0000   140.0000   150.0000   160.0000   170.0000   180.0000   190.0000

 Pc/P =   200.0000

 SUBSONIC AREA RATIOS =

 SUPERSONIC AREA RATIOS =

 NFZ=  1  Mdot/Ac= 0.000000E+00  Ac/At= 0.000000E+00

 NOTE! REACTANT O2(L)          HAS BEEN DEFINED FOR TEMPERATURE   90.17K ONLY.
 YOUR TEMPERATURE ASSIGNMENT   88.00 IS NOT = BUT <10 K FROM THIS VALUE. (REACT)

    REACTANT          WT.FRAC   (ENERGY/R),K   TEMP,K  DENSITY
        EXPLODED FORMULA
 F: CH4              1.000000  -0.896432E+04   300.00  0.0000
          C  1.00000  H  4.00000
 O: O2(L)            1.000000  -0.156101E+04    90.17  0.0000
          O  2.00000

  SPECIES BEING CONSIDERED IN THIS SYSTEM
 (CONDENSED PHASE MAY HAVE NAME LISTED SEVERAL TIMES)
  LAST thermo.inp UPDATE:    9/09/04

  g 7/97  *C               tpis79  *CH              g 4/02  CH2            
  g 4/02  CH3              g11/00  CH2OH            g 7/00  CH3O           
  g 8/99  CH4              g 7/00  CH3OH            srd 01  CH3OOH         
  tpis79  *CO              g 9/99  *CO2             tpis91  COOH           
  tpis91  *C2              g 6/01  C2H              g 1/91  C2H2,acetylene 
  g 5/01  C2H2,vinylidene  g 4/02  CH2CO,ketene     g 3/02  O(CH)2O        
  srd 01  HO(CO)2OH        g 7/01  C2H3,vinyl       g 6/96  CH3CO,acetyl   
  g 1/00  C2H4             g 8/88  C2H4O,ethylen-o  g 8/88  CH3CHO,ethanal 
  g 6/00  CH3COOH          srd 01  OHCH2COOH        g 7/00  C2H5           
  g 7/00  C2H6             g 8/88  C2H5OH           g 7/00  CH3OCH3        
  srd 01  CH3O2CH3         g 8/00  C2O              tpis79  *C3            
  n 4/98  C3H3,1-propynl   n 4/98  C3H3,2-propynl   g 2/00  C3H4,allene    
  g 1/00  C3H4,propyne     g 5/90  C3H4,cyclo-      g 3/01  C3H5,allyl     
  g 2/00  C3H6,propylene   g 1/00  C3H6,cyclo-      g 6/01  C3H6O,propylox 
  g 6/97  C3H6O,acetone    g 1/02  C3H6O,propanal   g 7/01  C3H7,n-propyl  
  g 9/85  C3H7,i-propyl    g 2/00  C3H8             g 2/00  C3H8O,1propanol
  g 2/00  C3H8O,2propanol  g 7/88  C3O2             g tpis  *C4            
  g 7/01  C4H2,butadiyne   g 8/00  C4H4,1,3-cyclo-  n10/92  C4H6,butadiene 
  n10/93  C4H6,1butyne     n10/93  C4H6,2butyne     g 8/00  C4H6,cyclo-    
  n 4/88  C4H8,1-butene    n 4/88  C4H8,cis2-buten  n 4/88  C4H8,tr2-butene
  n 4/88  C4H8,isobutene   g 8/00  C4H8,cyclo-      g10/00  (CH3COOH)2     
  n10/84  C4H9,n-butyl     n10/84  C4H9,i-butyl     g 1/93  C4H9,s-butyl   
  g 1/93  C4H9,t-butyl     g12/00  C4H10,n-butane   g 8/00  C4H10,isobutane
  g 8/00  *C5              g 5/90  C5H6,1,3cyclo-   g 1/93  C5H8,cyclo-    
  n 4/87  C5H10,1-pentene  g 2/01  C5H10,cyclo-     n10/84  C5H11,pentyl   
  g 1/93  C5H11,t-pentyl   n10/85  C5H12,n-pentane  n10/85  C5H12,i-pentane
  n10/85  CH3C(CH3)2CH3    g 2/93  C6H2             g11/00  C6H5,phenyl    
  g 8/00  C6H5O,phenoxy    g 8/00  C6H6             g 8/00  C6H5OH,phenol  
  g 1/93  C6H10,cyclo-     n 4/87  C6H12,1-hexene   g 6/90  C6H12,cyclo-   
  n10/83  C6H13,n-hexyl    g 6/01  C6H14,n-hexane   g 7/01  C7H7,benzyl    
  g 1/93  C7H8             g12/00  C7H8O,cresol-mx  n 4/87  C7H14,1-heptene
  n10/83  C7H15,n-heptyl   n10/85  C7H16,n-heptane  n10/85  C7H16,2-methylh
  n 4/89  C8H8,styrene     n10/86  C8H10,ethylbenz  n 4/87  C8H16,1-octene 
  n10/83  C8H17,n-octyl    n 4/85  C8H18,n-octane   n 4/85  C8H18,isooctane
  n10/83  C9H19,n-nonyl    g 3/01  C10H8,naphthale  n10/83  C10H21,n-decyl 
  G12/12  C11H21           g 8/00  C12H9,o-bipheny  g 8/00  C12H10,biphenyl
  g 6/97  *H               g 1/01  HCO              g 6/01  HCCO           
  g 4/02  HO2              tpis78  *H2              g 5/01  HCHO,formaldehy
  g 6/01  HCOOH            g 8/89  H2O              g 6/99  H2O2           
  g 6/01  (HCOOH)2         g 5/97  *O               g 4/02  *OH            
  tpis89  *O2              g 8/01  O3               g 12/0  THDCPD,endo    
  g 12/0  THDCPD,exo       n 4/83  C(gr)            n 4/83  C(gr)          
  n 4/83  C(gr)            n12/84  CH3OH(L)         n12/84  C2H5OH(L)      
  n 4/85  C6H14(L),n-hexa  n10/86  C6H6(L)          g11/99  H2O(cr)        
  g 8/01  H2O(L)           g 8/01  H2O(L)         

 O/F =   2.800000

                       EFFECTIVE FUEL     EFFECTIVE OXIDANT        MIXTURE
 ENTHALPY                  h(2)/R              h(1)/R               h0/R
 (KG-MOL)(K)/KG       -0.55878696E+03     -0.48783267E+02     -0.18299477E+03

 KG-FORM.WT./KG             bi(2)               bi(1)               b0i
  *C                   0.62334580E-01      0.00000000E+00      0.16403837E-01
  *H                   0.24933832E+00      0.00000000E+00      0.65615347E-01
  *O                   0.00000000E+00      0.62502344E-01      0.46054359E-01

 POINT ITN      T            C           H           O 
 Pinf/Pt = 1.738170
 Pinf/Pt = 1.739693

              THEORETICAL ROCKET PERFORMANCE ASSUMING EQUILIBRIUM

           COMPOSITION DURING EXPANSION FROM INFINITE AREA COMBUSTOR

 Pin =   725.2 PSIA
 CASE = _______________

             REACTANT                    WT FRACTION      ENERGY      TEMP
                                          (SEE NOTE)     KJ/KG-MOL      K  
 FUEL        CH4                          1.0000000    -74533.907    300.000
 OXIDANT     O2(L)                        1.0000000    -12979.000     90.170

 O/F=    2.80000  %FUEL= 26.315789  R,EQ.RATIO= 1.424737  PHI,EQ.RATIO= 1.424737

                 CHAMBER   THROAT     EXIT     EXIT     EXIT     EXIT     EXIT     EXIT
 Pinf/P            1.0000   1.7397   110.00   120.00   130.00   140.00   150.00   160.00
 P, BAR            50.000   28.741  0.45455  0.41667  0.38462  0.35714  0.33333  0.31250
 T, K             3395.26  3196.65  1733.36  1706.76  1682.60  1660.49  1640.14  1621.31
 RHO, KG/CU M    3.4665 0 2.1385 0 6.4084-2 5.9660-2 5.5862-2 5.2563-2 4.9668-2 4.7105-2
 H, KJ/KG        -1521.51 -2292.67 -6491.57 -6552.81 -6608.32 -6659.00 -6705.59 -6748.66
 U, KJ/KG        -2963.89 -3636.66 -7200.86 -7251.21 -7296.82 -7338.46 -7376.71 -7412.07
 G, KJ/KG        -45808.6 -43989.1 -29101.2 -28815.5 -28555.8 -28318.1 -28099.3 -27896.7
 S, KJ/(KG)(K)    13.0438  13.0438  13.0438  13.0438  13.0438  13.0438  13.0438  13.0438

 M, (1/n)          19.572   19.776   20.319   20.319   20.319   20.320   20.320   20.320
 (dLV/dLP)t      -1.02056 -1.01489 -1.00004 -1.00003 -1.00003 -1.00002 -1.00002 -1.00002
 (dLV/dLT)p        1.3783   1.2908   1.0012   1.0010   1.0008   1.0007   1.0006   1.0005
 Cp, KJ/(KG)(K)    5.4721   4.8827   2.3077   2.3018   2.2968   2.2927   2.2891   2.2860
 GAMMAs            1.1454   1.1476   1.2161   1.2167   1.2172   1.2176   1.2180   1.2183
 SON VEL,M/SEC     1285.3   1241.9    928.8    921.8    915.4    909.6    904.1    899.0
 MACH NUMBER        0.000    1.000    3.395    3.441    3.484    3.524    3.562    3.597

 PERFORMANCE PARAMETERS

 Ae/At                      1.0000   13.144   14.033   14.905   15.762   16.606   17.437
 CSTAR, M/SEC               1882.7   1882.7   1882.7   1882.7   1882.7   1882.7   1882.7
 CF                         0.6596   1.6746   1.6849   1.6942   1.7026   1.7103   1.7174
 Ivac, M/SEC                2324.1   3377.8   3392.3   3405.5   3417.4   3428.4   3438.5
 Isp, M/SEC                 1241.9   3152.8   3172.2   3189.6   3205.5   3220.0   3233.3

 MASS FRACTIONS

 *CO              0.34028  0.33380  0.27544  0.27328  0.27124  0.26930  0.26745  0.26568
 *CO2             0.18721  0.19743  0.28915  0.29255  0.29576  0.29880  0.30171  0.30448
 COOH             0.00002  0.00001  0.00000  0.00000  0.00000  0.00000  0.00000  0.00000
 *H               0.00135  0.00106  0.00001  0.00001  0.00000  0.00000  0.00000  0.00000
 HCO              0.00002  0.00001  0.00000  0.00000  0.00000  0.00000  0.00000  0.00000
 HO2              0.00004  0.00002  0.00000  0.00000  0.00000  0.00000  0.00000  0.00000
 *H2              0.01640  0.01624  0.01960  0.01976  0.01991  0.02005  0.02018  0.02031
 H2O              0.41654  0.42504  0.41578  0.41439  0.41308  0.41184  0.41065  0.40952
 H2O2             0.00001  0.00000  0.00000  0.00000  0.00000  0.00000  0.00000  0.00000
 *O               0.00253  0.00146  0.00000  0.00000  0.00000  0.00000  0.00000  0.00000
 *OH              0.03004  0.02158  0.00002  0.00001  0.00001  0.00001  0.00001  0.00001
 *O2              0.00556  0.00335  0.00000  0.00000  0.00000  0.00000  0.00000  0.00000

  * THERMODYNAMIC PROPERTIES FITTED TO 20000.K

    PRODUCTS WHICH WERE CONSIDERED BUT WHOSE MASS FRACTIONS
    WERE LESS THAN 5.000000E-06 FOR ALL ASSIGNED CONDITIONS

 *C              *CH             CH2             CH3             CH2OH          
 CH3O            CH4             CH3OH           CH3OOH          *C2            
 C2H             C2H2,acetylene  C2H2,vinylidene CH2CO,ketene    O(CH)2O        
 HO(CO)2OH       C2H3,vinyl      CH3CO,acetyl    C2H4            C2H4O,ethylen-o
 CH3CHO,ethanal  CH3COOH         OHCH2COOH       C2H5            C2H6           
 C2H5OH          CH3OCH3         CH3O2CH3        C2O             *C3            
 C3H3,1-propynl  C3H3,2-propynl  C3H4,allene     C3H4,propyne    C3H4,cyclo-    
 C3H5,allyl      C3H6,propylene  C3H6,cyclo-     C3H6O,propylox  C3H6O,acetone  
 C3H6O,propanal  C3H7,n-propyl   C3H7,i-propyl   C3H8            C3H8O,1propanol
 C3H8O,2propanol C3O2            *C4             C4H2,butadiyne  C4H4,1,3-cyclo-
 C4H6,butadiene  C4H6,1butyne    C4H6,2butyne    C4H6,cyclo-     C4H8,1-butene  
 C4H8,cis2-buten C4H8,tr2-butene C4H8,isobutene  C4H8,cyclo-     (CH3COOH)2     
 C4H9,n-butyl    C4H9,i-butyl    C4H9,s-butyl    C4H9,t-butyl    C4H10,n-butane 
 C4H10,isobutane *C5             C5H6,1,3cyclo-  C5H8,cyclo-     C5H10,1-pentene
 C5H10,cyclo-    C5H11,pentyl    C5H11,t-pentyl  C5H12,n-pentane C5H12,i-pentane
 CH3C(CH3)2CH3   C6H2            C6H5,phenyl     C6H5O,phenoxy   C6H6           
 C6H5OH,phenol   C6H10,cyclo-    C6H12,1-hexene  C6H12,cyclo-    C6H13,n-hexyl  
 C6H14,n-hexane  C7H7,benzyl     C7H8            C7H8O,cresol-mx C7H14,1-heptene
 C7H15,n-heptyl  C7H16,n-heptane C7H16,2-methylh C8H8,styrene    C8H10,ethylbenz
 C8H16,1-octene  C8H17,n-octyl   C8H18,n-octane  C8H18,isooctane C9H19,n-nonyl  
 C10H8,naphthale C10H21,n-decyl  C11H21          C12H9,o-bipheny C12H10,biphenyl
 HCCO            HCHO,formaldehy HCOOH           (HCOOH)2        O3             
 THDCPD,endo     THDCPD,exo      C(gr)           CH3OH(L)        C2H5OH(L)      
 C6H14(L),n-hexa C6H6(L)         H2O(cr)         H2O(L)         

 NOTE. WEIGHT FRACTION OF FUEL IN TOTAL FUELS AND OF OXIDANT IN TOTAL OXIDANTS

              THEORETICAL ROCKET PERFORMANCE ASSUMING EQUILIBRIUM

           COMPOSITION DURING EXPANSION FROM INFINITE AREA COMBUSTOR

 Pin =   725.2 PSIA
 CASE = _______________

             REACTANT                    WT FRACTION      ENERGY      TEMP
                                          (SEE NOTE)     KJ/KG-MOL      K  
 FUEL        CH4                          1.0000000    -74533.907    300.000
 OXIDANT     O2(L)                        1.0000000    -12979.000     90.170

 O/F=    2.80000  %FUEL= 26.315789  R,EQ.RATIO= 1.424737  PHI,EQ.RATIO= 1.424737

                 CHAMBER   THROAT     EXIT     EXIT     EXIT     EXIT
 Pinf/P            1.0000   1.7397   170.00   180.00   190.00   200.00
 P, BAR            50.000   28.741  0.29412  0.27778  0.26316  0.25000
 T, K             3395.26  3196.65  1603.79  1587.43  1572.10  1557.68
 RHO, KG/CU M    3.4665 0 2.1385 0 4.4819-2 4.2765-2 4.0910-2 3.9224-2
 H, KJ/KG        -1521.51 -2292.67 -6788.66 -6825.98 -6860.93 -6893.77
 U, KJ/KG        -2963.89 -3636.66 -7444.90 -7475.52 -7504.19 -7531.13
 G, KJ/KG        -45808.6 -43989.1 -27708.2 -27532.1 -27367.1 -27211.8
 S, KJ/(KG)(K)    13.0438  13.0438  13.0438  13.0438  13.0438  13.0438

 M, (1/n)          19.572   19.776   20.320   20.320   20.320   20.320
 (dLV/dLP)t      -1.02056 -1.01489 -1.00001 -1.00001 -1.00001 -1.00001
 (dLV/dLT)p        1.3783   1.2908   1.0004   1.0004   1.0003   1.0003
 Cp, KJ/(KG)(K)    5.4721   4.8827   2.2834   2.2811   2.2791   2.2774
 GAMMAs            1.1454   1.1476   1.2185   1.2188   1.2190   1.2192
 SON VEL,M/SEC     1285.3   1241.9    894.2    889.7    885.5    881.5
 MACH NUMBER        0.000    1.000    3.630    3.661    3.690    3.718

 PERFORMANCE PARAMETERS

 Ae/At                      1.0000   18.257   19.066   19.866   20.656
 CSTAR, M/SEC               1882.7   1882.7   1882.7   1882.7   1882.7
 CF                         0.6596   1.7239   1.7300   1.7357   1.7410
 Ivac, M/SEC                2324.1   3447.8   3456.6   3464.7   3472.3
 Isp, M/SEC                 1241.9   3245.7   3257.1   3267.8   3277.9

 MASS FRACTIONS

 *CO              0.34028  0.33380  0.26399  0.26236  0.26080  0.25929
 *CO2             0.18721  0.19743  0.30714  0.30970  0.31216  0.31453
 COOH             0.00002  0.00001  0.00000  0.00000  0.00000  0.00000
 *H               0.00135  0.00106  0.00000  0.00000  0.00000  0.00000
 HCO              0.00002  0.00001  0.00000  0.00000  0.00000  0.00000
 HO2              0.00004  0.00002  0.00000  0.00000  0.00000  0.00000
 *H2              0.01640  0.01624  0.02043  0.02055  0.02066  0.02077
 H2O              0.41654  0.42504  0.40843  0.40738  0.40638  0.40541
 H2O2             0.00001  0.00000  0.00000  0.00000  0.00000  0.00000
 *O               0.00253  0.00146  0.00000  0.00000  0.00000  0.00000
 *OH              0.03004  0.02158  0.00000  0.00000  0.00000  0.00000
 *O2              0.00556  0.00335  0.00000  0.00000  0.00000  0.00000

  * THERMODYNAMIC PROPERTIES FITTED TO 20000.K

    PRODUCTS WHICH WERE CONSIDERED BUT WHOSE MASS FRACTIONS
    WERE LESS THAN 5.000000E-06 FOR ALL ASSIGNED CONDITIONS

 *C              *CH             CH2             CH3             CH2OH          
 CH3O            CH4             CH3OH           CH3OOH          *C2            
 C2H             C2H2,acetylene  C2H2,vinylidene CH2CO,ketene    O(CH)2O        
 HO(CO)2OH       C2H3,vinyl      CH3CO,acetyl    C2H4            C2H4O,ethylen-o
 CH3CHO,ethanal  CH3COOH         OHCH2COOH       C2H5            C2H6           
 C2H5OH          CH3OCH3         CH3O2CH3        C2O             *C3            
 C3H3,1-propynl  C3H3,2-propynl  C3H4,allene     C3H4,propyne    C3H4,cyclo-    
 C3H5,allyl      C3H6,propylene  C3H6,cyclo-     C3H6O,propylox  C3H6O,acetone  
 C3H6O,propanal  C3H7,n-propyl   C3H7,i-propyl   C3H8            C3H8O,1propanol
 C3H8O,2propanol C3O2            *C4             C4H2,butadiyne  C4H4,1,3-cyclo-
 C4H6,butadiene  C4H6,1butyne    C4H6,2butyne    C4H6,cyclo-     C4H8,1-butene  
 C4H8,cis2-buten C4H8,tr2-butene C4H8,isobutene  C4H8,cyclo-     (CH3COOH)2     
 C4H9,n-butyl    C4H9,i-butyl    C4H9,s-butyl    C4H9,t-butyl    C4H10,n-butane 
 C4H10,isobutane *C5             C5H6,1,3cyclo-  C5H8,cyclo-     C5H10,1-pentene
 C5H10,cyclo-    C5H11,pentyl    C5H11,t-pentyl  C5H12,n-pentane C5H12,i-pentane
 CH3C(CH3)2CH3   C6H2            C6H5,phenyl     C6H5O,phenoxy   C6H6           
 C6H5OH,phenol   C6H10,cyclo-    C6H12,1-hexene  C6H12,cyclo-    C6H13,n-hexyl  
 C6H14,n-hexane  C7H7,benzyl     C7H8            C7H8O,cresol-mx C7H14,1-heptene
 C7H15,n-heptyl  C7H16,n-heptane C7H16,2-methylh C8H8,styrene    C8H10,ethylbenz
 C8H16,1-octene  C8H17,n-octyl   C8H18,n-octane  C8H18,isooctane C9H19,n-nonyl  
 C10H8,naphthale C10H21,n-decyl  C11H21          C12H9,o-bipheny C12H10,biphenyl
 HCCO            HCHO,formaldehy HCOOH           (HCOOH)2        O3             
 THDCPD,endo     THDCPD,exo      C(gr)           CH3OH(L)        C2H5OH(L)      
 C6H14(L),n-hexa C6H6(L)         H2O(cr)         H2O(L)         

 NOTE. WEIGHT FRACTION OF FUEL IN TOTAL FUELS AND OF OXIDANT IN TOTAL OXIDANTS

 POINT ITN      T            C           H           O 
 Pinf/Pt = 1.739077
 Pinf/Pt = 1.740749

              THEORETICAL ROCKET PERFORMANCE ASSUMING EQUILIBRIUM

           COMPOSITION DURING EXPANSION FROM INFINITE AREA COMBUSTOR

 Pin =   870.2 PSIA
 CASE = _______________

             REACTANT                    WT FRACTION      ENERGY      TEMP
                                          (SEE NOTE)     KJ/KG-MOL      K  
 FUEL        CH4                          1.0000000    -74533.907    300.000
 OXIDANT     O2(L)                        1.0000000    -12979.000     90.170

 O/F=    2.80000  %FUEL= 26.315789  R,EQ.RATIO= 1.424737  PHI,EQ.RATIO= 1.424737

                 CHAMBER   THROAT     EXIT     EXIT     EXIT     EXIT     EXIT     EXIT
 Pinf/P            1.0000   1.7407   110.00   120.00   130.00   140.00   150.00   160.00
 P, BAR            60.000   34.468  0.54545  0.50000  0.46154  0.42857  0.40000  0.37500
 T, K             3413.29  3210.32  1731.34  1704.75  1680.60  1658.51  1638.18  1619.36
 RHO, KG/CU M    4.1449 0 2.5573 0 7.6992-2 7.1677-2 6.7115-2 6.3152-2 5.9673-2 5.6594-2
 H, KJ/KG        -1521.51 -2296.01 -6496.39 -6557.56 -6613.00 -6663.62 -6710.16 -6753.17
 U, KJ/KG        -2969.07 -3643.83 -7204.85 -7255.13 -7300.68 -7342.26 -7380.47 -7415.78
 G, KJ/KG        -45779.6 -43922.3 -28945.6 -28662.1 -28404.4 -28168.6 -27951.5 -27750.4
 S, KJ/(KG)(K)    12.9664  12.9664  12.9664  12.9664  12.9664  12.9664  12.9664  12.9664

 M, (1/n)          19.605   19.804   20.319   20.319   20.320   20.320   20.320   20.320
 (dLV/dLP)t      -1.01960 -1.01408 -1.00003 -1.00003 -1.00002 -1.00002 -1.00002 -1.00001
 (dLV/dLT)p        1.3592   1.2740   1.0011   1.0009   1.0008   1.0006   1.0005   1.0005
 Cp, KJ/(KG)(K)    5.3058   4.7338   2.3058   2.3001   2.2954   2.2914   2.2880   2.2851
 GAMMAs            1.1469   1.1493   1.2163   1.2168   1.2173   1.2177   1.2180   1.2184
 SON VEL,M/SEC     1288.5   1244.6    928.3    921.3    914.9    909.1    903.6    898.5
 MACH NUMBER        0.000    1.000    3.398    3.445    3.488    3.528    3.565    3.600

 PERFORMANCE PARAMETERS

 Ae/At                      1.0000   13.106   13.992   14.861   15.716   16.557   17.386
 CSTAR, M/SEC               1885.1   1885.1   1885.1   1885.1   1885.1   1885.1   1885.1
 CF                         0.6602   1.6733   1.6835   1.6928   1.7012   1.7088   1.7159
 Ivac, M/SEC                2327.5   3378.9   3393.5   3406.6   3418.5   3429.5   3439.5
 Isp, M/SEC                 1244.6   3154.3   3173.7   3191.1   3206.9   3221.4   3234.7

 MASS FRACTIONS

 *CO              0.34000  0.33360  0.27528  0.27311  0.27107  0.26912  0.26727  0.26550
 *CO2             0.18765  0.19773  0.28940  0.29281  0.29603  0.29908  0.30199  0.30477
 COOH             0.00002  0.00001  0.00000  0.00000  0.00000  0.00000  0.00000  0.00000
 *H               0.00128  0.00100  0.00001  0.00000  0.00000  0.00000  0.00000  0.00000
 HCO              0.00003  0.00001  0.00000  0.00000  0.00000  0.00000  0.00000  0.00000
 HO2              0.00004  0.00002  0.00000  0.00000  0.00000  0.00000  0.00000  0.00000
 *H2              0.01635  0.01620  0.01962  0.01977  0.01992  0.02006  0.02019  0.02032
 HCOOH            0.00001  0.00000  0.00000  0.00000  0.00000  0.00000  0.00000  0.00000
 H2O              0.41809  0.42633  0.41568  0.41429  0.41298  0.41173  0.41054  0.40940
 H2O2             0.00001  0.00000  0.00000  0.00000  0.00000  0.00000  0.00000  0.00000
 *O               0.00233  0.00133  0.00000  0.00000  0.00000  0.00000  0.00000  0.00000
 *OH              0.02905  0.02069  0.00002  0.00001  0.00001  0.00001  0.00001  0.00000
 *O2              0.00515  0.00306  0.00000  0.00000  0.00000  0.00000  0.00000  0.00000

  * THERMODYNAMIC PROPERTIES FITTED TO 20000.K

    PRODUCTS WHICH WERE CONSIDERED BUT WHOSE MASS FRACTIONS
    WERE LESS THAN 5.000000E-06 FOR ALL ASSIGNED CONDITIONS

 *C              *CH             CH2             CH3             CH2OH          
 CH3O            CH4             CH3OH           CH3OOH          *C2            
 C2H             C2H2,acetylene  C2H2,vinylidene CH2CO,ketene    O(CH)2O        
 HO(CO)2OH       C2H3,vinyl      CH3CO,acetyl    C2H4            C2H4O,ethylen-o
 CH3CHO,ethanal  CH3COOH         OHCH2COOH       C2H5            C2H6           
 C2H5OH          CH3OCH3         CH3O2CH3        C2O             *C3            
 C3H3,1-propynl  C3H3,2-propynl  C3H4,allene     C3H4,propyne    C3H4,cyclo-    
 C3H5,allyl      C3H6,propylene  C3H6,cyclo-     C3H6O,propylox  C3H6O,acetone  
 C3H6O,propanal  C3H7,n-propyl   C3H7,i-propyl   C3H8            C3H8O,1propanol
 C3H8O,2propanol C3O2            *C4             C4H2,butadiyne  C4H4,1,3-cyclo-
 C4H6,butadiene  C4H6,1butyne    C4H6,2butyne    C4H6,cyclo-     C4H8,1-butene  
 C4H8,cis2-buten C4H8,tr2-butene C4H8,isobutene  C4H8,cyclo-     (CH3COOH)2     
 C4H9,n-butyl    C4H9,i-butyl    C4H9,s-butyl    C4H9,t-butyl    C4H10,n-butane 
 C4H10,isobutane *C5             C5H6,1,3cyclo-  C5H8,cyclo-     C5H10,1-pentene
 C5H10,cyclo-    C5H11,pentyl    C5H11,t-pentyl  C5H12,n-pentane C5H12,i-pentane
 CH3C(CH3)2CH3   C6H2            C6H5,phenyl     C6H5O,phenoxy   C6H6           
 C6H5OH,phenol   C6H10,cyclo-    C6H12,1-hexene  C6H12,cyclo-    C6H13,n-hexyl  
 C6H14,n-hexane  C7H7,benzyl     C7H8            C7H8O,cresol-mx C7H14,1-heptene
 C7H15,n-heptyl  C7H16,n-heptane C7H16,2-methylh C8H8,styrene    C8H10,ethylbenz
 C8H16,1-octene  C8H17,n-octyl   C8H18,n-octane  C8H18,isooctane C9H19,n-nonyl  
 C10H8,naphthale C10H21,n-decyl  C11H21          C12H9,o-bipheny C12H10,biphenyl
 HCCO            HCHO,formaldehy (HCOOH)2        O3              THDCPD,endo    
 THDCPD,exo      C(gr)           CH3OH(L)        C2H5OH(L)       C6H14(L),n-hexa
 C6H6(L)         H2O(cr)         H2O(L)         

 NOTE. WEIGHT FRACTION OF FUEL IN TOTAL FUELS AND OF OXIDANT IN TOTAL OXIDANTS

              THEORETICAL ROCKET PERFORMANCE ASSUMING EQUILIBRIUM

           COMPOSITION DURING EXPANSION FROM INFINITE AREA COMBUSTOR

 Pin =   870.2 PSIA
 CASE = _______________

             REACTANT                    WT FRACTION      ENERGY      TEMP
                                          (SEE NOTE)     KJ/KG-MOL      K  
 FUEL        CH4                          1.0000000    -74533.907    300.000
 OXIDANT     O2(L)                        1.0000000    -12979.000     90.170

 O/F=    2.80000  %FUEL= 26.315789  R,EQ.RATIO= 1.424737  PHI,EQ.RATIO= 1.424737

                 CHAMBER   THROAT     EXIT     EXIT     EXIT     EXIT
 Pinf/P            1.0000   1.7407   170.00   180.00   190.00   200.00
 P, BAR            60.000   34.468  0.35294  0.33333  0.31579  0.30000
 T, K             3413.29  3210.32  1601.86  1585.51  1570.19  1555.79
 RHO, KG/CU M    4.1449 0 2.5573 0 5.3847-2 5.1380-2 4.9151-2 4.7126-2
 H, KJ/KG        -1521.51 -2296.01 -6793.12 -6830.40 -6865.30 -6898.11
 U, KJ/KG        -2969.07 -3643.83 -7448.57 -7479.15 -7507.79 -7534.70
 G, KJ/KG        -45779.6 -43922.3 -27563.5 -27388.8 -27225.1 -27071.1
 S, KJ/(KG)(K)    12.9664  12.9664  12.9664  12.9664  12.9664  12.9664

 M, (1/n)          19.605   19.804   20.320   20.320   20.320   20.320
 (dLV/dLP)t      -1.01960 -1.01408 -1.00001 -1.00001 -1.00001 -1.00001
 (dLV/dLT)p        1.3592   1.2740   1.0004   1.0003   1.0003   1.0003
 Cp, KJ/(KG)(K)    5.3058   4.7338   2.2826   2.2804   2.2784   2.2768
 GAMMAs            1.1469   1.1493   1.2186   1.2188   1.2190   1.2192
 SON VEL,M/SEC     1288.5   1244.6    893.7    889.2    885.0    881.0
 MACH NUMBER        0.000    1.000    3.633    3.664    3.694    3.722

 PERFORMANCE PARAMETERS

 Ae/At                      1.0000   18.204   19.011   19.808   20.596
 CSTAR, M/SEC               1885.1   1885.1   1885.1   1885.1   1885.1
 CF                         0.6602   1.7224   1.7285   1.7342   1.7395
 Ivac, M/SEC                2327.5   3448.9   3457.6   3465.7   3473.3
 Isp, M/SEC                 1244.6   3247.0   3258.5   3269.2   3279.2

 MASS FRACTIONS

 *CO              0.34000  0.33360  0.26380  0.26217  0.26060  0.25909
 *CO2             0.18765  0.19773  0.30744  0.31000  0.31247  0.31485
 COOH             0.00002  0.00001  0.00000  0.00000  0.00000  0.00000
 *H               0.00128  0.00100  0.00000  0.00000  0.00000  0.00000
 HCO              0.00003  0.00001  0.00000  0.00000  0.00000  0.00000
 HO2              0.00004  0.00002  0.00000  0.00000  0.00000  0.00000
 *H2              0.01635  0.01620  0.02045  0.02056  0.02068  0.02078
 HCOOH            0.00001  0.00000  0.00000  0.00000  0.00000  0.00000
 H2O              0.41809  0.42633  0.40831  0.40726  0.40625  0.40528
 H2O2             0.00001  0.00000  0.00000  0.00000  0.00000  0.00000
 *O               0.00233  0.00133  0.00000  0.00000  0.00000  0.00000
 *OH              0.02905  0.02069  0.00000  0.00000  0.00000  0.00000
 *O2              0.00515  0.00306  0.00000  0.00000  0.00000  0.00000

  * THERMODYNAMIC PROPERTIES FITTED TO 20000.K

    PRODUCTS WHICH WERE CONSIDERED BUT WHOSE MASS FRACTIONS
    WERE LESS THAN 5.000000E-06 FOR ALL ASSIGNED CONDITIONS

 *C              *CH             CH2             CH3             CH2OH          
 CH3O            CH4             CH3OH           CH3OOH          *C2            
 C2H             C2H2,acetylene  C2H2,vinylidene CH2CO,ketene    O(CH)2O        
 HO(CO)2OH       C2H3,vinyl      CH3CO,acetyl    C2H4            C2H4O,ethylen-o
 CH3CHO,ethanal  CH3COOH         OHCH2COOH       C2H5            C2H6           
 C2H5OH          CH3OCH3         CH3O2CH3        C2O             *C3            
 C3H3,1-propynl  C3H3,2-propynl  C3H4,allene     C3H4,propyne    C3H4,cyclo-    
 C3H5,allyl      C3H6,propylene  C3H6,cyclo-     C3H6O,propylox  C3H6O,acetone  
 C3H6O,propanal  C3H7,n-propyl   C3H7,i-propyl   C3H8            C3H8O,1propanol
 C3H8O,2propanol C3O2            *C4             C4H2,butadiyne  C4H4,1,3-cyclo-
 C4H6,butadiene  C4H6,1butyne    C4H6,2butyne    C4H6,cyclo-     C4H8,1-butene  
 C4H8,cis2-buten C4H8,tr2-butene C4H8,isobutene  C4H8,cyclo-     (CH3COOH)2     
 C4H9,n-butyl    C4H9,i-butyl    C4H9,s-butyl    C4H9,t-butyl    C4H10,n-butane 
 C4H10,isobutane *C5             C5H6,1,3cyclo-  C5H8,cyclo-     C5H10,1-pentene
 C5H10,cyclo-    C5H11,pentyl    C5H11,t-pentyl  C5H12,n-pentane C5H12,i-pentane
 CH3C(CH3)2CH3   C6H2            C6H5,phenyl     C6H5O,phenoxy   C6H6           
 C6H5OH,phenol   C6H10,cyclo-    C6H12,1-hexene  C6H12,cyclo-    C6H13,n-hexyl  
 C6H14,n-hexane  C7H7,benzyl     C7H8            C7H8O,cresol-mx C7H14,1-heptene
 C7H15,n-heptyl  C7H16,n-heptane C7H16,2-methylh C8H8,styrene    C8H10,ethylbenz
 C8H16,1-octene  C8H17,n-octyl   C8H18,n-octane  C8H18,isooctane C9H19,n-nonyl  
 C10H8,naphthale C10H21,n-decyl  C11H21          C12H9,o-bipheny C12H10,biphenyl
 HCCO            HCHO,formaldehy (HCOOH)2        O3              THDCPD,endo    
 THDCPD,exo      C(gr)           CH3OH(L)        C2H5OH(L)       C6H14(L),n-hexa
 C6H6(L)         H2O(cr)         H2O(L)         

 NOTE. WEIGHT FRACTION OF FUEL IN TOTAL FUELS AND OF OXIDANT IN TOTAL OXIDANTS

 POINT ITN      T            C           H           O 
 Pinf/Pt = 1.739851
 Pinf/Pt = 1.741648

              THEORETICAL ROCKET PERFORMANCE ASSUMING EQUILIBRIUM

           COMPOSITION DURING EXPANSION FROM INFINITE AREA COMBUSTOR

 Pin =  1015.3 PSIA
 CASE = _______________

             REACTANT                    WT FRACTION      ENERGY      TEMP
                                          (SEE NOTE)     KJ/KG-MOL      K  
 FUEL        CH4                          1.0000000    -74533.907    300.000
 OXIDANT     O2(L)                        1.0000000    -12979.000     90.170

 O/F=    2.80000  %FUEL= 26.315789  R,EQ.RATIO= 1.424737  PHI,EQ.RATIO= 1.424737

                 CHAMBER   THROAT     EXIT     EXIT     EXIT     EXIT     EXIT     EXIT
 Pinf/P            1.0000   1.7416   110.00   120.00   130.00   140.00   150.00   160.00
 P, BAR            70.000   40.192  0.63636  0.58333  0.53846  0.50000  0.46667  0.43750
 T, K             3428.27  3221.57  1729.70  1703.12  1678.99  1656.91  1636.59  1617.78
 RHO, KG/CU M    4.8214 0 2.9751 0 8.9909-2 8.3704-2 7.8376-2 7.3748-2 6.9687-2 6.6091-2
 H, KJ/KG        -1521.51 -2298.79 -6500.28 -6561.39 -6616.78 -6667.36 -6713.85 -6756.82
 U, KJ/KG        -2973.36 -3649.74 -7208.07 -7258.30 -7303.80 -7345.34 -7383.51 -7418.78
 G, KJ/KG        -45749.9 -43860.5 -28815.3 -28533.5 -28277.6 -28043.3 -27827.6 -27628.0
 S, KJ/(KG)(K)    12.9011  12.9011  12.9011  12.9011  12.9011  12.9011  12.9011  12.9011

 M, (1/n)          19.633   19.827   20.319   20.319   20.320   20.320   20.320   20.320
 (dLV/dLP)t      -1.01881 -1.01341 -1.00003 -1.00003 -1.00002 -1.00002 -1.00001 -1.00001
 (dLV/dLT)p        1.3433   1.2603   1.0010   1.0008   1.0007   1.0006   1.0005   1.0004
 Cp, KJ/(KG)(K)    5.1699   4.6130   2.3043   2.2989   2.2943   2.2905   2.2872   2.2844
 GAMMAs            1.1481   1.1507   1.2164   1.2169   1.2174   1.2178   1.2181   1.2184
 SON VEL,M/SEC     1291.1   1246.8    927.9    920.9    914.5    908.6    903.2    898.1
 MACH NUMBER        0.000    1.000    3.401    3.448    3.491    3.531    3.568    3.603

 PERFORMANCE PARAMETERS

 Ae/At                      1.0000   13.074   13.958   14.826   15.679   16.518   17.345
 CSTAR, M/SEC               1887.1   1887.1   1887.1   1887.1   1887.1   1887.1   1887.1
 CF                         0.6607   1.6722   1.6824   1.6916   1.7000   1.7076   1.7147
 Ivac, M/SEC                2330.3   3379.9   3394.4   3407.5   3419.4   3430.3   3440.4
 Isp, M/SEC                 1246.8   3155.6   3174.9   3192.3   3208.1   3222.5   3235.8

 MASS FRACTIONS

 *CO              0.33975  0.33344  0.27515  0.27298  0.27093  0.26898  0.26712  0.26535
 *CO2             0.18802  0.19797  0.28961  0.29302  0.29624  0.29931  0.30222  0.30501
 COOH             0.00002  0.00001  0.00000  0.00000  0.00000  0.00000  0.00000  0.00000
 *H               0.00123  0.00095  0.00001  0.00000  0.00000  0.00000  0.00000  0.00000
 HCO              0.00003  0.00002  0.00000  0.00000  0.00000  0.00000  0.00000  0.00000
 HO2              0.00004  0.00002  0.00000  0.00000  0.00000  0.00000  0.00000  0.00000
 *H2              0.01631  0.01617  0.01963  0.01978  0.01993  0.02007  0.02021  0.02033
 HCOOH            0.00001  0.00000  0.00000  0.00000  0.00000  0.00000  0.00000  0.00000
 H2O              0.41939  0.42741  0.41560  0.41420  0.41289  0.41164  0.41044  0.40930
 H2O2             0.00001  0.00001  0.00000  0.00000  0.00000  0.00000  0.00000  0.00000
 *O               0.00217  0.00122  0.00000  0.00000  0.00000  0.00000  0.00000  0.00000
 *OH              0.02821  0.01995  0.00001  0.00001  0.00001  0.00001  0.00001  0.00000
 *O2              0.00482  0.00282  0.00000  0.00000  0.00000  0.00000  0.00000  0.00000

  * THERMODYNAMIC PROPERTIES FITTED TO 20000.K

    PRODUCTS WHICH WERE CONSIDERED BUT WHOSE MASS FRACTIONS
    WERE LESS THAN 5.000000E-06 FOR ALL ASSIGNED CONDITIONS

 *C              *CH             CH2             CH3             CH2OH          
 CH3O            CH4             CH3OH           CH3OOH          *C2            
 C2H             C2H2,acetylene  C2H2,vinylidene CH2CO,ketene    O(CH)2O        
 HO(CO)2OH       C2H3,vinyl      CH3CO,acetyl    C2H4            C2H4O,ethylen-o
 CH3CHO,ethanal  CH3COOH         OHCH2COOH       C2H5            C2H6           
 C2H5OH          CH3OCH3         CH3O2CH3        C2O             *C3            
 C3H3,1-propynl  C3H3,2-propynl  C3H4,allene     C3H4,propyne    C3H4,cyclo-    
 C3H5,allyl      C3H6,propylene  C3H6,cyclo-     C3H6O,propylox  C3H6O,acetone  
 C3H6O,propanal  C3H7,n-propyl   C3H7,i-propyl   C3H8            C3H8O,1propanol
 C3H8O,2propanol C3O2            *C4             C4H2,butadiyne  C4H4,1,3-cyclo-
 C4H6,butadiene  C4H6,1butyne    C4H6,2butyne    C4H6,cyclo-     C4H8,1-butene  
 C4H8,cis2-buten C4H8,tr2-butene C4H8,isobutene  C4H8,cyclo-     (CH3COOH)2     
 C4H9,n-butyl    C4H9,i-butyl    C4H9,s-butyl    C4H9,t-butyl    C4H10,n-butane 
 C4H10,isobutane *C5             C5H6,1,3cyclo-  C5H8,cyclo-     C5H10,1-pentene
 C5H10,cyclo-    C5H11,pentyl    C5H11,t-pentyl  C5H12,n-pentane C5H12,i-pentane
 CH3C(CH3)2CH3   C6H2            C6H5,phenyl     C6H5O,phenoxy   C6H6           
 C6H5OH,phenol   C6H10,cyclo-    C6H12,1-hexene  C6H12,cyclo-    C6H13,n-hexyl  
 C6H14,n-hexane  C7H7,benzyl     C7H8            C7H8O,cresol-mx C7H14,1-heptene
 C7H15,n-heptyl  C7H16,n-heptane C7H16,2-methylh C8H8,styrene    C8H10,ethylbenz
 C8H16,1-octene  C8H17,n-octyl   C8H18,n-octane  C8H18,isooctane C9H19,n-nonyl  
 C10H8,naphthale C10H21,n-decyl  C11H21          C12H9,o-bipheny C12H10,biphenyl
 HCCO            HCHO,formaldehy (HCOOH)2        O3              THDCPD,endo    
 THDCPD,exo      C(gr)           CH3OH(L)        C2H5OH(L)       C6H14(L),n-hexa
 C6H6(L)         H2O(cr)         H2O(L)         

 NOTE. WEIGHT FRACTION OF FUEL IN TOTAL FUELS AND OF OXIDANT IN TOTAL OXIDANTS

              THEORETICAL ROCKET PERFORMANCE ASSUMING EQUILIBRIUM

           COMPOSITION DURING EXPANSION FROM INFINITE AREA COMBUSTOR

 Pin =  1015.3 PSIA
 CASE = _______________

             REACTANT                    WT FRACTION      ENERGY      TEMP
                                          (SEE NOTE)     KJ/KG-MOL      K  
 FUEL        CH4                          1.0000000    -74533.907    300.000
 OXIDANT     O2(L)                        1.0000000    -12979.000     90.170

 O/F=    2.80000  %FUEL= 26.315789  R,EQ.RATIO= 1.424737  PHI,EQ.RATIO= 1.424737

                 CHAMBER   THROAT     EXIT     EXIT     EXIT     EXIT
 Pinf/P            1.0000   1.7416   170.00   180.00   190.00   200.00
 P, BAR            70.000   40.192  0.41176  0.38889  0.36842  0.35000
 T, K             3428.27  3221.57  1600.29  1583.96  1568.66  1554.26
 RHO, KG/CU M    4.8214 0 2.9751 0 6.2884-2 6.0002-2 5.7399-2 5.5035-2
 H, KJ/KG        -1521.51 -2298.79 -6796.73 -6833.97 -6868.84 -6901.61
 U, KJ/KG        -2973.36 -3649.74 -7451.54 -7482.09 -7510.69 -7537.57
 G, KJ/KG        -45749.9 -43860.5 -27442.2 -27268.8 -27106.2 -26953.2
 S, KJ/(KG)(K)    12.9011  12.9011  12.9011  12.9011  12.9011  12.9011

 M, (1/n)          19.633   19.827   20.320   20.320   20.320   20.320
 (dLV/dLP)t      -1.01881 -1.01341 -1.00001 -1.00001 -1.00001 -1.00001
 (dLV/dLT)p        1.3433   1.2603   1.0004   1.0003   1.0003   1.0002
 Cp, KJ/(KG)(K)    5.1699   4.6130   2.2819   2.2798   2.2779   2.2763
 GAMMAs            1.1481   1.1507   1.2187   1.2189   1.2191   1.2193
 SON VEL,M/SEC     1291.1   1246.8    893.3    888.8    884.6    880.6
 MACH NUMBER        0.000    1.000    3.636    3.667    3.697    3.725

 PERFORMANCE PARAMETERS

 Ae/At                      1.0000   18.161   18.966   19.761   20.547
 CSTAR, M/SEC               1887.1   1887.1   1887.1   1887.1   1887.1
 CF                         0.6607   1.7212   1.7273   1.7329   1.7382
 Ivac, M/SEC                2330.3   3449.7   3458.4   3466.5   3474.1
 Isp, M/SEC                 1246.8   3248.1   3259.6   3270.3   3280.3

 MASS FRACTIONS

 *CO              0.33975  0.33344  0.26365  0.26201  0.26044  0.25893
 *CO2             0.18802  0.19797  0.30768  0.31025  0.31272  0.31510
 COOH             0.00002  0.00001  0.00000  0.00000  0.00000  0.00000
 *H               0.00123  0.00095  0.00000  0.00000  0.00000  0.00000
 HCO              0.00003  0.00002  0.00000  0.00000  0.00000  0.00000
 HO2              0.00004  0.00002  0.00000  0.00000  0.00000  0.00000
 *H2              0.01631  0.01617  0.02046  0.02057  0.02069  0.02080
 HCOOH            0.00001  0.00000  0.00000  0.00000  0.00000  0.00000
 H2O              0.41939  0.42741  0.40821  0.40716  0.40615  0.40517
 H2O2             0.00001  0.00001  0.00000  0.00000  0.00000  0.00000
 *O               0.00217  0.00122  0.00000  0.00000  0.00000  0.00000
 *OH              0.02821  0.01995  0.00000  0.00000  0.00000  0.00000
 *O2              0.00482  0.00282  0.00000  0.00000  0.00000  0.00000

  * THERMODYNAMIC PROPERTIES FITTED TO 20000.K

    PRODUCTS WHICH WERE CONSIDERED BUT WHOSE MASS FRACTIONS
    WERE LESS THAN 5.000000E-06 FOR ALL ASSIGNED CONDITIONS

 *C              *CH             CH2             CH3             CH2OH          
 CH3O            CH4             CH3OH           CH3OOH          *C2            
 C2H             C2H2,acetylene  C2H2,vinylidene CH2CO,ketene    O(CH)2O        
 HO(CO)2OH       C2H3,vinyl      CH3CO,acetyl    C2H4            C2H4O,ethylen-o
 CH3CHO,ethanal  CH3COOH         OHCH2COOH       C2H5            C2H6           
 C2H5OH          CH3OCH3         CH3O2CH3        C2O             *C3            
 C3H3,1-propynl  C3H3,2-propynl  C3H4,allene     C3H4,propyne    C3H4,cyclo-    
 C3H5,allyl      C3H6,propylene  C3H6,cyclo-     C3H6O,propylox  C3H6O,acetone  
 C3H6O,propanal  C3H7,n-propyl   C3H7,i-propyl   C3H8            C3H8O,1propanol
 C3H8O,2propanol C3O2            *C4             C4H2,butadiyne  C4H4,1,3-cyclo-
 C4H6,butadiene  C4H6,1butyne    C4H6,2butyne    C4H6,cyclo-     C4H8,1-butene  
 C4H8,cis2-buten C4H8,tr2-butene C4H8,isobutene  C4H8,cyclo-     (CH3COOH)2     
 C4H9,n-butyl    C4H9,i-butyl    C4H9,s-butyl    C4H9,t-butyl    C4H10,n-butane 
 C4H10,isobutane *C5             C5H6,1,3cyclo-  C5H8,cyclo-     C5H10,1-pentene
 C5H10,cyclo-    C5H11,pentyl    C5H11,t-pentyl  C5H12,n-pentane C5H12,i-pentane
 CH3C(CH3)2CH3   C6H2            C6H5,phenyl     C6H5O,phenoxy   C6H6           
 C6H5OH,phenol   C6H10,cyclo-    C6H12,1-hexene  C6H12,cyclo-    C6H13,n-hexyl  
 C6H14,n-hexane  C7H7,benzyl     C7H8            C7H8O,cresol-mx C7H14,1-heptene
 C7H15,n-heptyl  C7H16,n-heptane C7H16,2-methylh C8H8,styrene    C8H10,ethylbenz
 C8H16,1-octene  C8H17,n-octyl   C8H18,n-octane  C8H18,isooctane C9H19,n-nonyl  
 C10H8,naphthale C10H21,n-decyl  C11H21          C12H9,o-bipheny C12H10,biphenyl
 HCCO            HCHO,formaldehy (HCOOH)2        O3              THDCPD,endo    
 THDCPD,exo      C(gr)           CH3OH(L)        C2H5OH(L)       C6H14(L),n-hexa
 C6H6(L)         H2O(cr)         H2O(L)         

 NOTE. WEIGHT FRACTION OF FUEL IN TOTAL FUELS AND OF OXIDANT IN TOTAL OXIDANTS

 POINT ITN      T            C           H           O 
 Pinf/Pt = 1.740526
 Pinf/Pt = 1.742431

              THEORETICAL ROCKET PERFORMANCE ASSUMING EQUILIBRIUM

           COMPOSITION DURING EXPANSION FROM INFINITE AREA COMBUSTOR

 Pin =  1160.3 PSIA
 CASE = _______________

             REACTANT                    WT FRACTION      ENERGY      TEMP
                                          (SEE NOTE)     KJ/KG-MOL      K  
 FUEL        CH4                          1.0000000    -74533.907    300.000
 OXIDANT     O2(L)                        1.0000000    -12979.000     90.170

 O/F=    2.80000  %FUEL= 26.315789  R,EQ.RATIO= 1.424737  PHI,EQ.RATIO= 1.424737

                 CHAMBER   THROAT     EXIT     EXIT     EXIT     EXIT     EXIT     EXIT
 Pinf/P            1.0000   1.7424   110.00   120.00   130.00   140.00   150.00   160.00
 P, BAR            80.000   45.913  0.72727  0.66667  0.61538  0.57143  0.53333  0.50000
 T, K             3441.05  3231.09  1728.33  1701.77  1677.64  1655.58  1635.27  1616.47
 RHO, KG/CU M    5.4964 0 3.3919 0 1.0284-1 9.5738-2 8.9645-2 8.4352-2 7.9707-2 7.5594-2
 H, KJ/KG        -1521.51 -2301.16 -6503.52 -6564.59 -6619.93 -6670.47 -6716.92 -6759.85
 U, KJ/KG        -2977.01 -3654.76 -7210.75 -7260.93 -7306.40 -7347.90 -7386.04 -7421.28
 G, KJ/KG        -45720.3 -43803.1 -28703.2 -28423.0 -28168.5 -27935.6 -27721.2 -27522.7
 S, KJ/(KG)(K)    12.8446  12.8446  12.8446  12.8446  12.8446  12.8446  12.8446  12.8446

 M, (1/n)          19.657   19.847   20.319   20.319   20.320   20.320   20.320   20.320
 (dLV/dLP)t      -1.01813 -1.01284 -1.00003 -1.00002 -1.00002 -1.00002 -1.00001 -1.00001
 (dLV/dLT)p        1.3299   1.2487   1.0009   1.0008   1.0006   1.0005   1.0005   1.0004
 Cp, KJ/(KG)(K)    5.0557   4.5122   2.3032   2.2979   2.2935   2.2897   2.2865   2.2838
 GAMMAs            1.1492   1.1520   1.2165   1.2170   1.2175   1.2178   1.2182   1.2185
 SON VEL,M/SEC     1293.3   1248.7    927.5    920.6    914.2    908.3    902.8    897.7
 MACH NUMBER        0.000    1.000    3.403    3.450    3.493    3.533    3.570    3.605

 PERFORMANCE PARAMETERS

 Ae/At                      1.0000   13.048   13.930   14.796   15.647   16.485   17.310
 CSTAR, M/SEC               1888.8   1888.8   1888.8   1888.8   1888.8   1888.8   1888.8
 CF                         0.6611   1.6712   1.6814   1.6906   1.6990   1.7067   1.7137
 Ivac, M/SEC                2332.7   3380.6   3395.1   3408.2   3420.1   3431.1   3441.1
 Isp, M/SEC                 1248.7   3156.6   3175.9   3193.2   3209.0   3223.5   3236.8

 MASS FRACTIONS

 *CO              0.33954  0.33331  0.27504  0.27287  0.27081  0.26886  0.26700  0.26522
 *CO2             0.18835  0.19819  0.28978  0.29320  0.29643  0.29949  0.30242  0.30521
 COOH             0.00003  0.00001  0.00000  0.00000  0.00000  0.00000  0.00000  0.00000
 *H               0.00118  0.00091  0.00000  0.00000  0.00000  0.00000  0.00000  0.00000
 HCO              0.00003  0.00002  0.00000  0.00000  0.00000  0.00000  0.00000  0.00000
 HO2              0.00004  0.00002  0.00000  0.00000  0.00000  0.00000  0.00000  0.00000
 *H2              0.01627  0.01615  0.01963  0.01979  0.01994  0.02008  0.02021  0.02034
 HCOOH            0.00001  0.00000  0.00000  0.00000  0.00000  0.00000  0.00000  0.00000
 H2O              0.42050  0.42832  0.41553  0.41413  0.41281  0.41156  0.41036  0.40922
 H2O2             0.00001  0.00001  0.00000  0.00000  0.00000  0.00000  0.00000  0.00000
 *O               0.00204  0.00113  0.00000  0.00000  0.00000  0.00000  0.00000  0.00000
 *OH              0.02747  0.01931  0.00001  0.00001  0.00001  0.00001  0.00000  0.00000
 *O2              0.00454  0.00263  0.00000  0.00000  0.00000  0.00000  0.00000  0.00000

  * THERMODYNAMIC PROPERTIES FITTED TO 20000.K

    PRODUCTS WHICH WERE CONSIDERED BUT WHOSE MASS FRACTIONS
    WERE LESS THAN 5.000000E-06 FOR ALL ASSIGNED CONDITIONS

 *C              *CH             CH2             CH3             CH2OH          
 CH3O            CH4             CH3OH           CH3OOH          *C2            
 C2H             C2H2,acetylene  C2H2,vinylidene CH2CO,ketene    O(CH)2O        
 HO(CO)2OH       C2H3,vinyl      CH3CO,acetyl    C2H4            C2H4O,ethylen-o
 CH3CHO,ethanal  CH3COOH         OHCH2COOH       C2H5            C2H6           
 C2H5OH          CH3OCH3         CH3O2CH3        C2O             *C3            
 C3H3,1-propynl  C3H3,2-propynl  C3H4,allene     C3H4,propyne    C3H4,cyclo-    
 C3H5,allyl      C3H6,propylene  C3H6,cyclo-     C3H6O,propylox  C3H6O,acetone  
 C3H6O,propanal  C3H7,n-propyl   C3H7,i-propyl   C3H8            C3H8O,1propanol
 C3H8O,2propanol C3O2            *C4             C4H2,butadiyne  C4H4,1,3-cyclo-
 C4H6,butadiene  C4H6,1butyne    C4H6,2butyne    C4H6,cyclo-     C4H8,1-butene  
 C4H8,cis2-buten C4H8,tr2-butene C4H8,isobutene  C4H8,cyclo-     (CH3COOH)2     
 C4H9,n-butyl    C4H9,i-butyl    C4H9,s-butyl    C4H9,t-butyl    C4H10,n-butane 
 C4H10,isobutane *C5             C5H6,1,3cyclo-  C5H8,cyclo-     C5H10,1-pentene
 C5H10,cyclo-    C5H11,pentyl    C5H11,t-pentyl  C5H12,n-pentane C5H12,i-pentane
 CH3C(CH3)2CH3   C6H2            C6H5,phenyl     C6H5O,phenoxy   C6H6           
 C6H5OH,phenol   C6H10,cyclo-    C6H12,1-hexene  C6H12,cyclo-    C6H13,n-hexyl  
 C6H14,n-hexane  C7H7,benzyl     C7H8            C7H8O,cresol-mx C7H14,1-heptene
 C7H15,n-heptyl  C7H16,n-heptane C7H16,2-methylh C8H8,styrene    C8H10,ethylbenz
 C8H16,1-octene  C8H17,n-octyl   C8H18,n-octane  C8H18,isooctane C9H19,n-nonyl  
 C10H8,naphthale C10H21,n-decyl  C11H21          C12H9,o-bipheny C12H10,biphenyl
 HCCO            HCHO,formaldehy (HCOOH)2        O3              THDCPD,endo    
 THDCPD,exo      C(gr)           CH3OH(L)        C2H5OH(L)       C6H14(L),n-hexa
 C6H6(L)         H2O(cr)         H2O(L)         

 NOTE. WEIGHT FRACTION OF FUEL IN TOTAL FUELS AND OF OXIDANT IN TOTAL OXIDANTS

              THEORETICAL ROCKET PERFORMANCE ASSUMING EQUILIBRIUM

           COMPOSITION DURING EXPANSION FROM INFINITE AREA COMBUSTOR

 Pin =  1160.3 PSIA
 CASE = _______________

             REACTANT                    WT FRACTION      ENERGY      TEMP
                                          (SEE NOTE)     KJ/KG-MOL      K  
 FUEL        CH4                          1.0000000    -74533.907    300.000
 OXIDANT     O2(L)                        1.0000000    -12979.000     90.170

 O/F=    2.80000  %FUEL= 26.315789  R,EQ.RATIO= 1.424737  PHI,EQ.RATIO= 1.424737

                 CHAMBER   THROAT     EXIT     EXIT     EXIT     EXIT
 Pinf/P            1.0000   1.7424   170.00   180.00   190.00   200.00
 P, BAR            80.000   45.913  0.47059  0.44444  0.42105  0.40000
 T, K             3441.05  3231.09  1598.99  1582.67  1567.37  1552.99
 RHO, KG/CU M    5.4964 0 3.3919 0 7.1926-2 6.8630-2 6.5653-2 6.2948-2
 H, KJ/KG        -1521.51 -2301.16 -6799.73 -6836.94 -6871.78 -6904.53
 U, KJ/KG        -2977.01 -3654.76 -7454.00 -7484.53 -7513.11 -7539.97
 G, KJ/KG        -45720.3 -43803.1 -27338.1 -27165.6 -27004.0 -26852.0
 S, KJ/(KG)(K)    12.8446  12.8446  12.8446  12.8446  12.8446  12.8446

 M, (1/n)          19.657   19.847   20.320   20.320   20.320   20.320
 (dLV/dLP)t      -1.01813 -1.01284 -1.00001 -1.00001 -1.00001 -1.00001
 (dLV/dLT)p        1.3299   1.2487   1.0003   1.0003   1.0003   1.0002
 Cp, KJ/(KG)(K)    5.0557   4.5122   2.2814   2.2793   2.2775   2.2759
 GAMMAs            1.1492   1.1520   1.2187   1.2189   1.2191   1.2193
 SON VEL,M/SEC     1293.3   1248.7    893.0    888.5    884.2    880.2
 MACH NUMBER        0.000    1.000    3.639    3.670    3.699    3.728

 PERFORMANCE PARAMETERS

 Ae/At                      1.0000   18.125   18.928   19.722   20.507
 CSTAR, M/SEC               1888.8   1888.8   1888.8   1888.8   1888.8
 CF                         0.6611   1.7202   1.7263   1.7319   1.7372
 Ivac, M/SEC                2332.7   3450.4   3459.1   3467.2   3474.8
 Isp, M/SEC                 1248.7   3249.1   3260.5   3271.2   3281.2

 MASS FRACTIONS

 *CO              0.33954  0.33331  0.26352  0.26188  0.26031  0.25879
 *CO2             0.18835  0.19819  0.30788  0.31045  0.31293  0.31531
 COOH             0.00003  0.00001  0.00000  0.00000  0.00000  0.00000
 *H               0.00118  0.00091  0.00000  0.00000  0.00000  0.00000
 HCO              0.00003  0.00002  0.00000  0.00000  0.00000  0.00000
 HO2              0.00004  0.00002  0.00000  0.00000  0.00000  0.00000
 *H2              0.01627  0.01615  0.02047  0.02058  0.02070  0.02081
 HCOOH            0.00001  0.00000  0.00000  0.00000  0.00000  0.00000
 H2O              0.42050  0.42832  0.40813  0.40708  0.40606  0.40509
 H2O2             0.00001  0.00001  0.00000  0.00000  0.00000  0.00000
 *O               0.00204  0.00113  0.00000  0.00000  0.00000  0.00000
 *OH              0.02747  0.01931  0.00000  0.00000  0.00000  0.00000
 *O2              0.00454  0.00263  0.00000  0.00000  0.00000  0.00000

  * THERMODYNAMIC PROPERTIES FITTED TO 20000.K

    PRODUCTS WHICH WERE CONSIDERED BUT WHOSE MASS FRACTIONS
    WERE LESS THAN 5.000000E-06 FOR ALL ASSIGNED CONDITIONS

 *C              *CH             CH2             CH3             CH2OH          
 CH3O            CH4             CH3OH           CH3OOH          *C2            
 C2H             C2H2,acetylene  C2H2,vinylidene CH2CO,ketene    O(CH)2O        
 HO(CO)2OH       C2H3,vinyl      CH3CO,acetyl    C2H4            C2H4O,ethylen-o
 CH3CHO,ethanal  CH3COOH         OHCH2COOH       C2H5            C2H6           
 C2H5OH          CH3OCH3         CH3O2CH3        C2O             *C3            
 C3H3,1-propynl  C3H3,2-propynl  C3H4,allene     C3H4,propyne    C3H4,cyclo-    
 C3H5,allyl      C3H6,propylene  C3H6,cyclo-     C3H6O,propylox  C3H6O,acetone  
 C3H6O,propanal  C3H7,n-propyl   C3H7,i-propyl   C3H8            C3H8O,1propanol
 C3H8O,2propanol C3O2            *C4             C4H2,butadiyne  C4H4,1,3-cyclo-
 C4H6,butadiene  C4H6,1butyne    C4H6,2butyne    C4H6,cyclo-     C4H8,1-butene  
 C4H8,cis2-buten C4H8,tr2-butene C4H8,isobutene  C4H8,cyclo-     (CH3COOH)2     
 C4H9,n-butyl    C4H9,i-butyl    C4H9,s-butyl    C4H9,t-butyl    C4H10,n-butane 
 C4H10,isobutane *C5             C5H6,1,3cyclo-  C5H8,cyclo-     C5H10,1-pentene
 C5H10,cyclo-    C5H11,pentyl    C5H11,t-pentyl  C5H12,n-pentane C5H12,i-pentane
 CH3C(CH3)2CH3   C6H2            C6H5,phenyl     C6H5O,phenoxy   C6H6           
 C6H5OH,phenol   C6H10,cyclo-    C6H12,1-hexene  C6H12,cyclo-    C6H13,n-hexyl  
 C6H14,n-hexane  C7H7,benzyl     C7H8            C7H8O,cresol-mx C7H14,1-heptene
 C7H15,n-heptyl  C7H16,n-heptane C7H16,2-methylh C8H8,styrene    C8H10,ethylbenz
 C8H16,1-octene  C8H17,n-octyl   C8H18,n-octane  C8H18,isooctane C9H19,n-nonyl  
 C10H8,naphthale C10H21,n-decyl  C11H21          C12H9,o-bipheny C12H10,biphenyl
 HCCO            HCHO,formaldehy (HCOOH)2        O3              THDCPD,endo    
 THDCPD,exo      C(gr)           CH3OH(L)        C2H5OH(L)       C6H14(L),n-hexa
 C6H6(L)         H2O(cr)         H2O(L)         

 NOTE. WEIGHT FRACTION OF FUEL IN TOTAL FUELS AND OF OXIDANT IN TOTAL OXIDANTS

 POINT ITN      T            C           H           O 
 Pinf/Pt = 1.741124
 Pinf/Pt = 1.743124

              THEORETICAL ROCKET PERFORMANCE ASSUMING EQUILIBRIUM

           COMPOSITION DURING EXPANSION FROM INFINITE AREA COMBUSTOR

 Pin =  1305.3 PSIA
 CASE = _______________

             REACTANT                    WT FRACTION      ENERGY      TEMP
                                          (SEE NOTE)     KJ/KG-MOL      K  
 FUEL        CH4                          1.0000000    -74533.907    300.000
 OXIDANT     O2(L)                        1.0000000    -12979.000     90.170

 O/F=    2.80000  %FUEL= 26.315789  R,EQ.RATIO= 1.424737  PHI,EQ.RATIO= 1.424737

                 CHAMBER   THROAT     EXIT     EXIT     EXIT     EXIT     EXIT     EXIT
 Pinf/P            1.0000   1.7431   110.00   120.00   130.00   140.00   150.00   160.00
 P, BAR            90.000   51.631  0.81818  0.75000  0.69231  0.64286  0.60000  0.56250
 T, K             3452.16  3239.30  1727.17  1700.61  1676.50  1654.44  1634.14  1615.35
 RHO, KG/CU M    6.1701 0 3.8080 0 1.1577-1 1.0778-1 1.0092-1 9.4961-2 8.9732-2 8.5103-2
 H, KJ/KG        -1521.51 -2303.23 -6506.28 -6567.31 -6622.61 -6673.11 -6719.53 -6762.44
 U, KJ/KG        -2980.16 -3659.09 -7213.03 -7263.17 -7308.60 -7350.08 -7388.19 -7423.40
 G, KJ/KG        -45691.1 -43749.3 -28605.0 -28326.2 -28073.0 -27841.3 -27628.0 -27430.5
 S, KJ/(KG)(K)    12.7948  12.7948  12.7948  12.7948  12.7948  12.7948  12.7948  12.7948

 M, (1/n)          19.678   19.864   20.319   20.320   20.320   20.320   20.320   20.320
 (dLV/dLP)t      -1.01754 -1.01235 -1.00003 -1.00002 -1.00002 -1.00001 -1.00001 -1.00001
 (dLV/dLT)p        1.3183   1.2388   1.0009   1.0007   1.0006   1.0005   1.0004   1.0004
 Cp, KJ/(KG)(K)    4.9577   4.4261   2.3022   2.2971   2.2928   2.2891   2.2860   2.2833
 GAMMAs            1.1502   1.1531   1.2166   1.2171   1.2175   1.2179   1.2182   1.2185
 SON VEL,M/SEC     1295.3   1250.4    927.3    920.3    913.9    908.0    902.5    897.4
 MACH NUMBER        0.000    1.000    3.405    3.452    3.495    3.535    3.572    3.608

 PERFORMANCE PARAMETERS

 Ae/At                      1.0000   13.026   13.907   14.771   15.621   16.457   17.281
 CSTAR, M/SEC               1890.2   1890.2   1890.2   1890.2   1890.2   1890.2   1890.2
 CF                         0.6615   1.6704   1.6806   1.6898   1.6982   1.7058   1.7128
 Ivac, M/SEC                2334.7   3381.3   3395.8   3408.9   3420.8   3431.7   3441.7
 Isp, M/SEC                 1250.4   3157.5   3176.7   3194.1   3209.9   3224.3   3237.6

 MASS FRACTIONS

 *CO              0.33936  0.33319  0.27495  0.27277  0.27071  0.26876  0.26689  0.26511
 *CO2             0.18863  0.19837  0.28993  0.29335  0.29658  0.29965  0.30258  0.30538
 COOH             0.00003  0.00002  0.00000  0.00000  0.00000  0.00000  0.00000  0.00000
 *H               0.00114  0.00088  0.00000  0.00000  0.00000  0.00000  0.00000  0.00000
 HCO              0.00004  0.00002  0.00000  0.00000  0.00000  0.00000  0.00000  0.00000
 HO2              0.00004  0.00002  0.00000  0.00000  0.00000  0.00000  0.00000  0.00000
 *H2              0.01624  0.01613  0.01964  0.01980  0.01995  0.02009  0.02022  0.02035
 HCOOH            0.00001  0.00001  0.00000  0.00000  0.00000  0.00000  0.00000  0.00000
 H2O              0.42147  0.42911  0.41547  0.41407  0.41275  0.41149  0.41030  0.40915
 H2O2             0.00001  0.00001  0.00000  0.00000  0.00000  0.00000  0.00000  0.00000
 *O               0.00192  0.00106  0.00000  0.00000  0.00000  0.00000  0.00000  0.00000
 *OH              0.02681  0.01874  0.00001  0.00001  0.00001  0.00001  0.00000  0.00000
 *O2              0.00430  0.00246  0.00000  0.00000  0.00000  0.00000  0.00000  0.00000

  * THERMODYNAMIC PROPERTIES FITTED TO 20000.K

    PRODUCTS WHICH WERE CONSIDERED BUT WHOSE MASS FRACTIONS
    WERE LESS THAN 5.000000E-06 FOR ALL ASSIGNED CONDITIONS

 *C              *CH             CH2             CH3             CH2OH          
 CH3O            CH4             CH3OH           CH3OOH          *C2            
 C2H             C2H2,acetylene  C2H2,vinylidene CH2CO,ketene    O(CH)2O        
 HO(CO)2OH       C2H3,vinyl      CH3CO,acetyl    C2H4            C2H4O,ethylen-o
 CH3CHO,ethanal  CH3COOH         OHCH2COOH       C2H5            C2H6           
 C2H5OH          CH3OCH3         CH3O2CH3        C2O             *C3            
 C3H3,1-propynl  C3H3,2-propynl  C3H4,allene     C3H4,propyne    C3H4,cyclo-    
 C3H5,allyl      C3H6,propylene  C3H6,cyclo-     C3H6O,propylox  C3H6O,acetone  
 C3H6O,propanal  C3H7,n-propyl   C3H7,i-propyl   C3H8            C3H8O,1propanol
 C3H8O,2propanol C3O2            *C4             C4H2,butadiyne  C4H4,1,3-cyclo-
 C4H6,butadiene  C4H6,1butyne    C4H6,2butyne    C4H6,cyclo-     C4H8,1-butene  
 C4H8,cis2-buten C4H8,tr2-butene C4H8,isobutene  C4H8,cyclo-     (CH3COOH)2     
 C4H9,n-butyl    C4H9,i-butyl    C4H9,s-butyl    C4H9,t-butyl    C4H10,n-butane 
 C4H10,isobutane *C5             C5H6,1,3cyclo-  C5H8,cyclo-     C5H10,1-pentene
 C5H10,cyclo-    C5H11,pentyl    C5H11,t-pentyl  C5H12,n-pentane C5H12,i-pentane
 CH3C(CH3)2CH3   C6H2            C6H5,phenyl     C6H5O,phenoxy   C6H6           
 C6H5OH,phenol   C6H10,cyclo-    C6H12,1-hexene  C6H12,cyclo-    C6H13,n-hexyl  
 C6H14,n-hexane  C7H7,benzyl     C7H8            C7H8O,cresol-mx C7H14,1-heptene
 C7H15,n-heptyl  C7H16,n-heptane C7H16,2-methylh C8H8,styrene    C8H10,ethylbenz
 C8H16,1-octene  C8H17,n-octyl   C8H18,n-octane  C8H18,isooctane C9H19,n-nonyl  
 C10H8,naphthale C10H21,n-decyl  C11H21          C12H9,o-bipheny C12H10,biphenyl
 HCCO            HCHO,formaldehy (HCOOH)2        O3              THDCPD,endo    
 THDCPD,exo      C(gr)           CH3OH(L)        C2H5OH(L)       C6H14(L),n-hexa
 C6H6(L)         H2O(cr)         H2O(L)         

 NOTE. WEIGHT FRACTION OF FUEL IN TOTAL FUELS AND OF OXIDANT IN TOTAL OXIDANTS

              THEORETICAL ROCKET PERFORMANCE ASSUMING EQUILIBRIUM

           COMPOSITION DURING EXPANSION FROM INFINITE AREA COMBUSTOR

 Pin =  1305.3 PSIA
 CASE = _______________

             REACTANT                    WT FRACTION      ENERGY      TEMP
                                          (SEE NOTE)     KJ/KG-MOL      K  
 FUEL        CH4                          1.0000000    -74533.907    300.000
 OXIDANT     O2(L)                        1.0000000    -12979.000     90.170

 O/F=    2.80000  %FUEL= 26.315789  R,EQ.RATIO= 1.424737  PHI,EQ.RATIO= 1.424737

                 CHAMBER   THROAT     EXIT     EXIT     EXIT     EXIT
 Pinf/P            1.0000   1.7431   170.00   180.00   190.00   200.00
 P, BAR            90.000   51.631  0.52941  0.50000  0.47368  0.45000
 T, K             3452.16  3239.30  1597.88  1581.57  1566.28  1551.90
 RHO, KG/CU M    6.1701 0 3.8080 0 8.0973-2 7.7263-2 7.3911-2 7.0866-2
 H, KJ/KG        -1521.51 -2303.23 -6802.29 -6839.47 -6874.29 -6907.01
 U, KJ/KG        -2980.16 -3659.09 -7456.11 -7486.61 -7515.17 -7542.01
 G, KJ/KG        -45691.1 -43749.3 -27246.8 -27075.3 -26914.5 -26763.2
 S, KJ/(KG)(K)    12.7948  12.7948  12.7948  12.7948  12.7948  12.7948

 M, (1/n)          19.678   19.864   20.320   20.320   20.320   20.320
 (dLV/dLP)t      -1.01754 -1.01235 -1.00001 -1.00001 -1.00001 -1.00001
 (dLV/dLT)p        1.3183   1.2388   1.0003   1.0003   1.0002   1.0002
 Cp, KJ/(KG)(K)    4.9577   4.4261   2.2810   2.2789   2.2772   2.2756
 GAMMAs            1.1502   1.1531   1.2188   1.2190   1.2192   1.2193
 SON VEL,M/SEC     1295.3   1250.4    892.7    888.2    883.9    879.9
 MACH NUMBER        0.000    1.000    3.641    3.672    3.702    3.730

 PERFORMANCE PARAMETERS

 Ae/At                      1.0000   18.094   18.896   19.689   20.472
 CSTAR, M/SEC               1890.2   1890.2   1890.2   1890.2   1890.2
 CF                         0.6615   1.7193   1.7254   1.7310   1.7363
 Ivac, M/SEC                2334.7   3451.0   3459.7   3467.8   3475.4
 Isp, M/SEC                 1250.4   3249.9   3261.3   3271.9   3281.9

 MASS FRACTIONS

 *CO              0.33936  0.33319  0.26341  0.26177  0.26019  0.25867
 *CO2             0.18863  0.19837  0.30806  0.31063  0.31311  0.31550
 COOH             0.00003  0.00002  0.00000  0.00000  0.00000  0.00000
 *H               0.00114  0.00088  0.00000  0.00000  0.00000  0.00000
 HCO              0.00004  0.00002  0.00000  0.00000  0.00000  0.00000
 HO2              0.00004  0.00002  0.00000  0.00000  0.00000  0.00000
 *H2              0.01624  0.01613  0.02047  0.02059  0.02071  0.02081
 HCOOH            0.00001  0.00001  0.00000  0.00000  0.00000  0.00000
 H2O              0.42147  0.42911  0.40806  0.40700  0.40599  0.40501
 H2O2             0.00001  0.00001  0.00000  0.00000  0.00000  0.00000
 *O               0.00192  0.00106  0.00000  0.00000  0.00000  0.00000
 *OH              0.02681  0.01874  0.00000  0.00000  0.00000  0.00000
 *O2              0.00430  0.00246  0.00000  0.00000  0.00000  0.00000

  * THERMODYNAMIC PROPERTIES FITTED TO 20000.K

    PRODUCTS WHICH WERE CONSIDERED BUT WHOSE MASS FRACTIONS
    WERE LESS THAN 5.000000E-06 FOR ALL ASSIGNED CONDITIONS

 *C              *CH             CH2             CH3             CH2OH          
 CH3O            CH4             CH3OH           CH3OOH          *C2            
 C2H             C2H2,acetylene  C2H2,vinylidene CH2CO,ketene    O(CH)2O        
 HO(CO)2OH       C2H3,vinyl      CH3CO,acetyl    C2H4            C2H4O,ethylen-o
 CH3CHO,ethanal  CH3COOH         OHCH2COOH       C2H5            C2H6           
 C2H5OH          CH3OCH3         CH3O2CH3        C2O             *C3            
 C3H3,1-propynl  C3H3,2-propynl  C3H4,allene     C3H4,propyne    C3H4,cyclo-    
 C3H5,allyl      C3H6,propylene  C3H6,cyclo-     C3H6O,propylox  C3H6O,acetone  
 C3H6O,propanal  C3H7,n-propyl   C3H7,i-propyl   C3H8            C3H8O,1propanol
 C3H8O,2propanol C3O2            *C4             C4H2,butadiyne  C4H4,1,3-cyclo-
 C4H6,butadiene  C4H6,1butyne    C4H6,2butyne    C4H6,cyclo-     C4H8,1-butene  
 C4H8,cis2-buten C4H8,tr2-butene C4H8,isobutene  C4H8,cyclo-     (CH3COOH)2     
 C4H9,n-butyl    C4H9,i-butyl    C4H9,s-butyl    C4H9,t-butyl    C4H10,n-butane 
 C4H10,isobutane *C5             C5H6,1,3cyclo-  C5H8,cyclo-     C5H10,1-pentene
 C5H10,cyclo-    C5H11,pentyl    C5H11,t-pentyl  C5H12,n-pentane C5H12,i-pentane
 CH3C(CH3)2CH3   C6H2            C6H5,phenyl     C6H5O,phenoxy   C6H6           
 C6H5OH,phenol   C6H10,cyclo-    C6H12,1-hexene  C6H12,cyclo-    C6H13,n-hexyl  
 C6H14,n-hexane  C7H7,benzyl     C7H8            C7H8O,cresol-mx C7H14,1-heptene
 C7H15,n-heptyl  C7H16,n-heptane C7H16,2-methylh C8H8,styrene    C8H10,ethylbenz
 C8H16,1-octene  C8H17,n-octyl   C8H18,n-octane  C8H18,isooctane C9H19,n-nonyl  
 C10H8,naphthale C10H21,n-decyl  C11H21          C12H9,o-bipheny C12H10,biphenyl
 HCCO            HCHO,formaldehy (HCOOH)2        O3              THDCPD,endo    
 THDCPD,exo      C(gr)           CH3OH(L)        C2H5OH(L)       C6H14(L),n-hexa
 C6H6(L)         H2O(cr)         H2O(L)         

 NOTE. WEIGHT FRACTION OF FUEL IN TOTAL FUELS AND OF OXIDANT IN TOTAL OXIDANTS

 POINT ITN      T            C           H           O 
 Pinf/Pt = 1.741661
 Pinf/Pt = 1.743744

              THEORETICAL ROCKET PERFORMANCE ASSUMING EQUILIBRIUM

           COMPOSITION DURING EXPANSION FROM INFINITE AREA COMBUSTOR

 Pin =  1450.4 PSIA
 CASE = _______________

             REACTANT                    WT FRACTION      ENERGY      TEMP
                                          (SEE NOTE)     KJ/KG-MOL      K  
 FUEL        CH4                          1.0000000    -74533.907    300.000
 OXIDANT     O2(L)                        1.0000000    -12979.000     90.170

 O/F=    2.80000  %FUEL= 26.315789  R,EQ.RATIO= 1.424737  PHI,EQ.RATIO= 1.424737

                 CHAMBER   THROAT     EXIT     EXIT     EXIT     EXIT     EXIT     EXIT
 Pinf/P            1.0000   1.7437   110.00   120.00   130.00   140.00   150.00   160.00
 P, BAR            100.00   57.348  0.90909  0.83333  0.76923  0.71429  0.66667  0.62500
 T, K             3461.97  3246.49  1726.16  1699.61  1675.50  1653.45  1633.16  1614.38
 RHO, KG/CU M    6.8426 0 4.2234 0 1.2871-1 1.1983-1 1.1220-1 1.0558-1 9.9762-2 9.4615-2
 H, KJ/KG        -1521.51 -2305.05 -6508.68 -6569.66 -6624.93 -6675.40 -6721.79 -6764.67
 U, KJ/KG        -2982.95 -3662.91 -7215.00 -7265.12 -7310.52 -7351.97 -7390.05 -7425.24
 G, KJ/KG        -45662.5 -43698.7 -28517.6 -28240.1 -27988.0 -27757.4 -27545.0 -27348.5
 S, KJ/(KG)(K)    12.7503  12.7503  12.7503  12.7503  12.7503  12.7503  12.7503  12.7503

 M, (1/n)          19.696   19.879   20.319   20.320   20.320   20.320   20.320   20.320
 (dLV/dLP)t      -1.01701 -1.01193 -1.00003 -1.00002 -1.00002 -1.00001 -1.00001 -1.00001
 (dLV/dLT)p        1.3081   1.2301   1.0008   1.0007   1.0006   1.0005   1.0004   1.0003
 Cp, KJ/(KG)(K)    4.8722   4.3513   2.3014   2.2964   2.2922   2.2886   2.2855   2.2829
 GAMMAs            1.1511   1.1541   1.2166   1.2171   1.2176   1.2179   1.2183   1.2185
 SON VEL,M/SEC     1297.0   1251.8    927.0    920.0    913.6    907.8    902.3    897.2
 MACH NUMBER        0.000    1.000    3.407    3.454    3.497    3.537    3.574    3.609

 PERFORMANCE PARAMETERS

 Ae/At                      1.0000   13.007   13.886   14.749   15.598   16.433   17.256
 CSTAR, M/SEC               1891.4   1891.4   1891.4   1891.4   1891.4   1891.4   1891.4
 CF                         0.6618   1.6698   1.6799   1.6891   1.6974   1.7051   1.7121
 Ivac, M/SEC                2336.5   3381.9   3396.3   3409.4   3421.3   3432.2   3442.2
 Isp, M/SEC                 1251.8   3158.2   3177.5   3194.8   3210.6   3225.0   3238.3

 MASS FRACTIONS

 *CO              0.33919  0.33308  0.27487  0.27269  0.27063  0.26867  0.26680  0.26502
 *CO2             0.18889  0.19853  0.29005  0.29348  0.29672  0.29979  0.30272  0.30552
 COOH             0.00003  0.00002  0.00000  0.00000  0.00000  0.00000  0.00000  0.00000
 *H               0.00110  0.00085  0.00000  0.00000  0.00000  0.00000  0.00000  0.00000
 HCO              0.00004  0.00002  0.00000  0.00000  0.00000  0.00000  0.00000  0.00000
 HO2              0.00004  0.00002  0.00000  0.00000  0.00000  0.00000  0.00000  0.00000
 *H2              0.01622  0.01611  0.01965  0.01980  0.01995  0.02009  0.02023  0.02036
 HCOOH            0.00001  0.00001  0.00000  0.00000  0.00000  0.00000  0.00000  0.00000
 H2O              0.42233  0.42980  0.41542  0.41402  0.41269  0.41144  0.41024  0.40909
 H2O2             0.00001  0.00001  0.00000  0.00000  0.00000  0.00000  0.00000  0.00000
 *O               0.00182  0.00100  0.00000  0.00000  0.00000  0.00000  0.00000  0.00000
 *OH              0.02622  0.01824  0.00001  0.00001  0.00001  0.00001  0.00000  0.00000
 *O2              0.00410  0.00232  0.00000  0.00000  0.00000  0.00000  0.00000  0.00000

  * THERMODYNAMIC PROPERTIES FITTED TO 20000.K

    PRODUCTS WHICH WERE CONSIDERED BUT WHOSE MASS FRACTIONS
    WERE LESS THAN 5.000000E-06 FOR ALL ASSIGNED CONDITIONS

 *C              *CH             CH2             CH3             CH2OH          
 CH3O            CH4             CH3OH           CH3OOH          *C2            
 C2H             C2H2,acetylene  C2H2,vinylidene CH2CO,ketene    O(CH)2O        
 HO(CO)2OH       C2H3,vinyl      CH3CO,acetyl    C2H4            C2H4O,ethylen-o
 CH3CHO,ethanal  CH3COOH         OHCH2COOH       C2H5            C2H6           
 C2H5OH          CH3OCH3         CH3O2CH3        C2O             *C3            
 C3H3,1-propynl  C3H3,2-propynl  C3H4,allene     C3H4,propyne    C3H4,cyclo-    
 C3H5,allyl      C3H6,propylene  C3H6,cyclo-     C3H6O,propylox  C3H6O,acetone  
 C3H6O,propanal  C3H7,n-propyl   C3H7,i-propyl   C3H8            C3H8O,1propanol
 C3H8O,2propanol C3O2            *C4             C4H2,butadiyne  C4H4,1,3-cyclo-
 C4H6,butadiene  C4H6,1butyne    C4H6,2butyne    C4H6,cyclo-     C4H8,1-butene  
 C4H8,cis2-buten C4H8,tr2-butene C4H8,isobutene  C4H8,cyclo-     (CH3COOH)2     
 C4H9,n-butyl    C4H9,i-butyl    C4H9,s-butyl    C4H9,t-butyl    C4H10,n-butane 
 C4H10,isobutane *C5             C5H6,1,3cyclo-  C5H8,cyclo-     C5H10,1-pentene
 C5H10,cyclo-    C5H11,pentyl    C5H11,t-pentyl  C5H12,n-pentane C5H12,i-pentane
 CH3C(CH3)2CH3   C6H2            C6H5,phenyl     C6H5O,phenoxy   C6H6           
 C6H5OH,phenol   C6H10,cyclo-    C6H12,1-hexene  C6H12,cyclo-    C6H13,n-hexyl  
 C6H14,n-hexane  C7H7,benzyl     C7H8            C7H8O,cresol-mx C7H14,1-heptene
 C7H15,n-heptyl  C7H16,n-heptane C7H16,2-methylh C8H8,styrene    C8H10,ethylbenz
 C8H16,1-octene  C8H17,n-octyl   C8H18,n-octane  C8H18,isooctane C9H19,n-nonyl  
 C10H8,naphthale C10H21,n-decyl  C11H21          C12H9,o-bipheny C12H10,biphenyl
 HCCO            HCHO,formaldehy (HCOOH)2        O3              THDCPD,endo    
 THDCPD,exo      C(gr)           CH3OH(L)        C2H5OH(L)       C6H14(L),n-hexa
 C6H6(L)         H2O(cr)         H2O(L)         

 NOTE. WEIGHT FRACTION OF FUEL IN TOTAL FUELS AND OF OXIDANT IN TOTAL OXIDANTS

              THEORETICAL ROCKET PERFORMANCE ASSUMING EQUILIBRIUM

           COMPOSITION DURING EXPANSION FROM INFINITE AREA COMBUSTOR

 Pin =  1450.4 PSIA
 CASE = _______________

             REACTANT                    WT FRACTION      ENERGY      TEMP
                                          (SEE NOTE)     KJ/KG-MOL      K  
 FUEL        CH4                          1.0000000    -74533.907    300.000
 OXIDANT     O2(L)                        1.0000000    -12979.000     90.170

 O/F=    2.80000  %FUEL= 26.315789  R,EQ.RATIO= 1.424737  PHI,EQ.RATIO= 1.424737

                 CHAMBER   THROAT     EXIT     EXIT     EXIT     EXIT
 Pinf/P            1.0000   1.7437   170.00   180.00   190.00   200.00
 P, BAR            100.00   57.348  0.58824  0.55556  0.52632  0.50000
 T, K             3461.97  3246.49  1596.92  1580.62  1565.33  1550.96
 RHO, KG/CU M    6.8426 0 4.2234 0 9.0024-2 8.5900-2 8.2173-2 7.8788-2
 H, KJ/KG        -1521.51 -2305.05 -6804.50 -6841.66 -6876.46 -6909.16
 U, KJ/KG        -2982.95 -3662.91 -7457.93 -7488.41 -7516.96 -7543.78
 G, KJ/KG        -45662.5 -43698.7 -27165.7 -26994.9 -26834.9 -26684.4
 S, KJ/(KG)(K)    12.7503  12.7503  12.7503  12.7503  12.7503  12.7503

 M, (1/n)          19.696   19.879   20.320   20.320   20.320   20.320
 (dLV/dLP)t      -1.01701 -1.01193 -1.00001 -1.00001 -1.00001 -1.00001
 (dLV/dLT)p        1.3081   1.2301   1.0003   1.0003   1.0002   1.0002
 Cp, KJ/(KG)(K)    4.8722   4.3513   2.2806   2.2786   2.2769   2.2753
 GAMMAs            1.1511   1.1541   1.2188   1.2190   1.2192   1.2194
 SON VEL,M/SEC     1297.0   1251.8    892.4    887.9    883.7    879.7
 MACH NUMBER        0.000    1.000    3.642    3.674    3.703    3.732

 PERFORMANCE PARAMETERS

 Ae/At                      1.0000   18.067   18.869   19.660   20.443
 CSTAR, M/SEC               1891.4   1891.4   1891.4   1891.4   1891.4
 CF                         0.6618   1.7186   1.7246   1.7302   1.7355
 Ivac, M/SEC                2336.5   3451.6   3460.2   3468.3   3475.9
 Isp, M/SEC                 1251.8   3250.5   3261.9   3272.6   3282.6

 MASS FRACTIONS

 *CO              0.33919  0.33308  0.26331  0.26167  0.26010  0.25857
 *CO2             0.18889  0.19853  0.30820  0.31078  0.31326  0.31565
 COOH             0.00003  0.00002  0.00000  0.00000  0.00000  0.00000
 *H               0.00110  0.00085  0.00000  0.00000  0.00000  0.00000
 HCO              0.00004  0.00002  0.00000  0.00000  0.00000  0.00000
 HO2              0.00004  0.00002  0.00000  0.00000  0.00000  0.00000
 *H2              0.01622  0.01611  0.02048  0.02060  0.02071  0.02082
 HCOOH            0.00001  0.00001  0.00000  0.00000  0.00000  0.00000
 H2O              0.42233  0.42980  0.40800  0.40694  0.40593  0.40495
 H2O2             0.00001  0.00001  0.00000  0.00000  0.00000  0.00000
 *O               0.00182  0.00100  0.00000  0.00000  0.00000  0.00000
 *OH              0.02622  0.01824  0.00000  0.00000  0.00000  0.00000
 *O2              0.00410  0.00232  0.00000  0.00000  0.00000  0.00000

  * THERMODYNAMIC PROPERTIES FITTED TO 20000.K

    PRODUCTS WHICH WERE CONSIDERED BUT WHOSE MASS FRACTIONS
    WERE LESS THAN 5.000000E-06 FOR ALL ASSIGNED CONDITIONS

 *C              *CH             CH2             CH3             CH2OH          
 CH3O            CH4             CH3OH           CH3OOH          *C2            
 C2H             C2H2,acetylene  C2H2,vinylidene CH2CO,ketene    O(CH)2O        
 HO(CO)2OH       C2H3,vinyl      CH3CO,acetyl    C2H4            C2H4O,ethylen-o
 CH3CHO,ethanal  CH3COOH         OHCH2COOH       C2H5            C2H6           
 C2H5OH          CH3OCH3         CH3O2CH3        C2O             *C3            
 C3H3,1-propynl  C3H3,2-propynl  C3H4,allene     C3H4,propyne    C3H4,cyclo-    
 C3H5,allyl      C3H6,propylene  C3H6,cyclo-     C3H6O,propylox  C3H6O,acetone  
 C3H6O,propanal  C3H7,n-propyl   C3H7,i-propyl   C3H8            C3H8O,1propanol
 C3H8O,2propanol C3O2            *C4             C4H2,butadiyne  C4H4,1,3-cyclo-
 C4H6,butadiene  C4H6,1butyne    C4H6,2butyne    C4H6,cyclo-     C4H8,1-butene  
 C4H8,cis2-buten C4H8,tr2-butene C4H8,isobutene  C4H8,cyclo-     (CH3COOH)2     
 C4H9,n-butyl    C4H9,i-butyl    C4H9,s-butyl    C4H9,t-butyl    C4H10,n-butane 
 C4H10,isobutane *C5             C5H6,1,3cyclo-  C5H8,cyclo-     C5H10,1-pentene
 C5H10,cyclo-    C5H11,pentyl    C5H11,t-pentyl  C5H12,n-pentane C5H12,i-pentane
 CH3C(CH3)2CH3   C6H2            C6H5,phenyl     C6H5O,phenoxy   C6H6           
 C6H5OH,phenol   C6H10,cyclo-    C6H12,1-hexene  C6H12,cyclo-    C6H13,n-hexyl  
 C6H14,n-hexane  C7H7,benzyl     C7H8            C7H8O,cresol-mx C7H14,1-heptene
 C7H15,n-heptyl  C7H16,n-heptane C7H16,2-methylh C8H8,styrene    C8H10,ethylbenz
 C8H16,1-octene  C8H17,n-octyl   C8H18,n-octane  C8H18,isooctane C9H19,n-nonyl  
 C10H8,naphthale C10H21,n-decyl  C11H21          C12H9,o-bipheny C12H10,biphenyl
 HCCO            HCHO,formaldehy (HCOOH)2        O3              THDCPD,endo    
 THDCPD,exo      C(gr)           CH3OH(L)        C2H5OH(L)       C6H14(L),n-hexa
 C6H6(L)         H2O(cr)         H2O(L)         

 NOTE. WEIGHT FRACTION OF FUEL IN TOTAL FUELS AND OF OXIDANT IN TOTAL OXIDANTS

 O/F =   2.900000

                       EFFECTIVE FUEL     EFFECTIVE OXIDANT        MIXTURE
 ENTHALPY                  h(2)/R              h(1)/R               h0/R
 (KG-MOL)(K)/KG       -0.55878696E+03     -0.48783267E+02     -0.17955344E+03

 KG-FORM.WT./KG             bi(2)               bi(1)               b0i
  *C                   0.62334580E-01      0.00000000E+00      0.15983226E-01
  *H                   0.24933832E+00      0.00000000E+00      0.63932902E-01
  *O                   0.00000000E+00      0.62502344E-01      0.46476102E-01

 POINT ITN      T            C           H           O 
 Pinf/Pt = 1.735386
 Pinf/Pt = 1.735786

              THEORETICAL ROCKET PERFORMANCE ASSUMING EQUILIBRIUM

           COMPOSITION DURING EXPANSION FROM INFINITE AREA COMBUSTOR

 Pin =   725.2 PSIA
 CASE = _______________

             REACTANT                    WT FRACTION      ENERGY      TEMP
                                          (SEE NOTE)     KJ/KG-MOL      K  
 FUEL        CH4                          1.0000000    -74533.907    300.000
 OXIDANT     O2(L)                        1.0000000    -12979.000     90.170

 O/F=    2.90000  %FUEL= 25.641026  R,EQ.RATIO= 1.375608  PHI,EQ.RATIO= 1.375608

                 CHAMBER   THROAT     EXIT     EXIT     EXIT     EXIT     EXIT     EXIT
 Pinf/P            1.0000   1.7358   110.00   120.00   130.00   140.00   150.00   160.00
 P, BAR            50.000   28.805  0.45455  0.41667  0.38462  0.35714  0.33333  0.31250
 T, K             3436.02  3246.11  1823.47  1796.13  1771.27  1748.50  1727.52  1708.08
 RHO, KG/CU M    3.4880 0 2.1511 0 6.2515-2 5.8179-2 5.4459-2 5.1229-2 4.8395-2 4.5887-2
 H, KJ/KG        -1492.90 -2257.10 -6498.40 -6561.19 -6618.12 -6670.12 -6717.93 -6762.13
 U, KJ/KG        -2926.37 -3596.18 -7225.50 -7277.37 -7324.37 -7367.27 -7406.71 -7443.15
 G, KJ/KG        -45892.2 -44202.4 -30060.8 -29770.3 -29506.0 -29263.8 -29040.4 -28833.4
 S, KJ/(KG)(K)    12.9217  12.9217  12.9217  12.9217  12.9217  12.9217  12.9217  12.9217

 M, (1/n)          19.930   20.155   20.852   20.852   20.853   20.853   20.853   20.854
 (dLV/dLP)t      -1.02485 -1.01892 -1.00008 -1.00007 -1.00006 -1.00005 -1.00004 -1.00004
 (dLV/dLT)p        1.4536   1.3657   1.0026   1.0021   1.0018   1.0015   1.0013   1.0011
 Cp, KJ/(KG)(K)    5.9436   5.3889   2.3067   2.2979   2.2906   2.2843   2.2790   2.2743
 GAMMAs            1.1408   1.1414   1.2102   1.2109   1.2116   1.2122   1.2127   1.2131
 SON VEL,M/SEC     1278.8   1236.3    938.0    931.3    925.0    919.3    913.9    908.9
 MACH NUMBER        0.000    1.000    3.373    3.419    3.461    3.500    3.537    3.572

 PERFORMANCE PARAMETERS

 Ae/At                      1.0000   13.445   14.357   15.253   16.133   16.999   17.853
 CSTAR, M/SEC               1880.1   1880.1   1880.1   1880.1   1880.1   1880.1   1880.1
 CF                         0.6576   1.6829   1.6934   1.7029   1.7115   1.7194   1.7266
 Ivac, M/SEC                2319.4   3393.8   3408.7   3422.2   3434.5   3445.7   3456.1
 Isp, M/SEC                 1236.3   3164.0   3183.8   3201.6   3217.8   3232.7   3246.3

 MASS FRACTIONS

 *CO              0.32082  0.31345  0.25794  0.25608  0.25431  0.25264  0.25104  0.24951
 *CO2             0.19928  0.21089  0.29814  0.30107  0.30384  0.30647  0.30898  0.31138
 COOH             0.00002  0.00001  0.00000  0.00000  0.00000  0.00000  0.00000  0.00000
 *H               0.00138  0.00111  0.00001  0.00001  0.00001  0.00001  0.00001  0.00001
 HCO              0.00002  0.00001  0.00000  0.00000  0.00000  0.00000  0.00000  0.00000
 HO2              0.00005  0.00003  0.00000  0.00000  0.00000  0.00000  0.00000  0.00000
 *H2              0.01439  0.01413  0.01662  0.01675  0.01688  0.01700  0.01712  0.01723
 H2O              0.41600  0.42538  0.42724  0.42605  0.42493  0.42386  0.42283  0.42186
 H2O2             0.00001  0.00001  0.00000  0.00000  0.00000  0.00000  0.00000  0.00000
 *O               0.00350  0.00221  0.00000  0.00000  0.00000  0.00000  0.00000  0.00000
 *OH              0.03578  0.02698  0.00005  0.00004  0.00003  0.00002  0.00002  0.00002
 *O2              0.00874  0.00580  0.00000  0.00000  0.00000  0.00000  0.00000  0.00000

  * THERMODYNAMIC PROPERTIES FITTED TO 20000.K

    PRODUCTS WHICH WERE CONSIDERED BUT WHOSE MASS FRACTIONS
    WERE LESS THAN 5.000000E-06 FOR ALL ASSIGNED CONDITIONS

 *C              *CH             CH2             CH3             CH2OH          
 CH3O            CH4             CH3OH           CH3OOH          *C2            
 C2H             C2H2,acetylene  C2H2,vinylidene CH2CO,ketene    O(CH)2O        
 HO(CO)2OH       C2H3,vinyl      CH3CO,acetyl    C2H4            C2H4O,ethylen-o
 CH3CHO,ethanal  CH3COOH         OHCH2COOH       C2H5            C2H6           
 C2H5OH          CH3OCH3         CH3O2CH3        C2O             *C3            
 C3H3,1-propynl  C3H3,2-propynl  C3H4,allene     C3H4,propyne    C3H4,cyclo-    
 C3H5,allyl      C3H6,propylene  C3H6,cyclo-     C3H6O,propylox  C3H6O,acetone  
 C3H6O,propanal  C3H7,n-propyl   C3H7,i-propyl   C3H8            C3H8O,1propanol
 C3H8O,2propanol C3O2            *C4             C4H2,butadiyne  C4H4,1,3-cyclo-
 C4H6,butadiene  C4H6,1butyne    C4H6,2butyne    C4H6,cyclo-     C4H8,1-butene  
 C4H8,cis2-buten C4H8,tr2-butene C4H8,isobutene  C4H8,cyclo-     (CH3COOH)2     
 C4H9,n-butyl    C4H9,i-butyl    C4H9,s-butyl    C4H9,t-butyl    C4H10,n-butane 
 C4H10,isobutane *C5             C5H6,1,3cyclo-  C5H8,cyclo-     C5H10,1-pentene
 C5H10,cyclo-    C5H11,pentyl    C5H11,t-pentyl  C5H12,n-pentane C5H12,i-pentane
 CH3C(CH3)2CH3   C6H2            C6H5,phenyl     C6H5O,phenoxy   C6H6           
 C6H5OH,phenol   C6H10,cyclo-    C6H12,1-hexene  C6H12,cyclo-    C6H13,n-hexyl  
 C6H14,n-hexane  C7H7,benzyl     C7H8            C7H8O,cresol-mx C7H14,1-heptene
 C7H15,n-heptyl  C7H16,n-heptane C7H16,2-methylh C8H8,styrene    C8H10,ethylbenz
[...]

 MASS FRACTIONS

 *CO              0.23410  0.22305  0.15380  0.15295  0.15217  0.15145  0.15077  0.15014
 *CO2             0.25558  0.27298  0.38183  0.38317  0.38439  0.38553  0.38659  0.38758
 COOH             0.00004  0.00002  0.00000  0.00000  0.00000  0.00000  0.00000  0.00000
 *H               0.00107  0.00092  0.00010  0.00009  0.00008  0.00007  0.00007  0.00006
 HCO              0.00002  0.00001  0.00000  0.00000  0.00000  0.00000  0.00000  0.00000
 HO2              0.00022  0.00014  0.00000  0.00000  0.00000  0.00000  0.00000  0.00000
 *H2              0.00768  0.00724  0.00590  0.00594  0.00598  0.00602  0.00606  0.00610
 HCOOH            0.00001  0.00000  0.00000  0.00000  0.00000  0.00000  0.00000  0.00000
 H2O              0.40271  0.41259  0.45560  0.45549  0.45534  0.45517  0.45498  0.45477
 H2O2             0.00004  0.00003  0.00000  0.00000  0.00000  0.00000  0.00000  0.00000
 *O               0.00784  0.00609  0.00005  0.00004  0.00003  0.00002  0.00002  0.00001
 *OH              0.05550  0.04700  0.00240  0.00208  0.00181  0.00158  0.00139  0.00123
 *O2              0.03518  0.02994  0.00033  0.00026  0.00020  0.00016  0.00013  0.00010

  * THERMODYNAMIC PROPERTIES FITTED TO 20000.K

    PRODUCTS WHICH WERE CONSIDERED BUT WHOSE MASS FRACTIONS
    WERE LESS THAN 5.000000E-06 FOR ALL ASSIGNED CONDITIONS

 *C              *CH             CH2             CH3             CH2OH          
 CH3O            CH4             CH3OH           CH3OOH          *C2            
 C2H             C2H2,acetylene  C2H2,vinylidene CH2CO,ketene    O(CH)2O        
 HO(CO)2OH       C2H3,vinyl      CH3CO,acetyl    C2H4            C2H4O,ethylen-o
 CH3CHO,ethanal  CH3COOH         OHCH2COOH       C2H5            C2H6           
 C2H5OH          CH3OCH3         CH3O2CH3        C2O             *C3            
 C3H3,1-propynl  C3H3,2-propynl  C3H4,allene     C3H4,propyne    C3H4,cyclo-    
 C3H5,allyl      C3H6,propylene  C3H6,cyclo-     C3H6O,propylox  C3H6O,acetone  
 C3H6O,propanal  C3H7,n-propyl   C3H7,i-propyl   C3H8            C3H8O,1propanol
 C3H8O,2propanol C3O2            *C4             C4H2,butadiyne  C4H4,1,3-cyclo-
 C4H6,butadiene  C4H6,1butyne    C4H6,2butyne    C4H6,cyclo-     C4H8,1-butene  
 C4H8,cis2-buten C4H8,tr2-butene C4H8,isobutene  C4H8,cyclo-     (CH3COOH)2     
 C4H9,n-butyl    C4H9,i-butyl    C4H9,s-butyl    C4H9,t-butyl    C4H10,n-butane 
 C4H10,isobutane *C5             C5H6,1,3cyclo-  C5H8,cyclo-     C5H10,1-pentene
 C5H10,cyclo-    C5H11,pentyl    C5H11,t-pentyl  C5H12,n-pentane C5H12,i-pentane
 CH3C(CH3)2CH3   C6H2            C6H5,phenyl     C6H5O,phenoxy   C6H6           
 C6H5OH,phenol   C6H10,cyclo-    C6H12,1-hexene  C6H12,cyclo-    C6H13,n-hexyl  
 C6H14,n-hexane  C7H7,benzyl     C7H8            C7H8O,cresol-mx C7H14,1-heptene
 C7H15,n-heptyl  C7H16,n-heptane C7H16,2-methylh C8H8,styrene    C8H10,ethylbenz
 C8H16,1-octene  C8H17,n-octyl   C8H18,n-octane  C8H18,isooctane C9H19,n-nonyl  
 C10H8,naphthale C10H21,n-decyl  C11H21          C12H9,o-bipheny C12H10,biphenyl
 HCCO            HCHO,formaldehy (HCOOH)2        O3              THDCPD,endo    
 THDCPD,exo      C(gr)           CH3OH(L)        C2H5OH(L)       C6H14(L),n-hexa
 C6H6(L)         H2O(cr)         H2O(L)         

 NOTE. WEIGHT FRACTION OF FUEL IN TOTAL FUELS AND OF OXIDANT IN TOTAL OXIDANTS

              THEORETICAL ROCKET PERFORMANCE ASSUMING EQUILIBRIUM

           COMPOSITION DURING EXPANSION FROM INFINITE AREA COMBUSTOR

 Pin =  1305.3 PSIA
 CASE = _______________

             REACTANT                    WT FRACTION      ENERGY      TEMP
                                          (SEE NOTE)     KJ/KG-MOL      K  
 FUEL        CH4                          1.0000000    -74533.907    300.000
 OXIDANT     O2(L)                        1.0000000    -12979.000     90.170

 O/F=    3.40000  %FUEL= 22.727273  R,EQ.RATIO= 1.173313  PHI,EQ.RATIO= 1.173313

                 CHAMBER   THROAT     EXIT     EXIT     EXIT     EXIT
 Pinf/P            1.0000   1.7279   170.00   180.00   190.00   200.00
 P, BAR            90.000   52.086  0.52941  0.50000  0.47368  0.45000
 T, K             3614.47  3437.88  2122.45  2104.45  2087.43  2071.30
 RHO, KG/CU M    6.4743 0 3.9912 0 7.0481-2 6.7145-2 6.4137-2 6.1412-2
 H, KJ/KG        -1369.34 -2106.01 -6767.48 -6810.23 -6850.33 -6888.06
 U, KJ/KG        -2759.46 -3411.02 -7518.63 -7554.89 -7588.88 -7620.82
 G, KJ/KG        -45242.6 -43835.8 -32530.3 -32354.5 -32188.0 -32030.0
 S, KJ/(KG)(K)    12.1382  12.1382  12.1382  12.1382  12.1382  12.1382

 M, (1/n)          21.619   21.904   23.494   23.497   23.500   23.503
 (dLV/dLP)t      -1.03918 -1.03462 -1.00079 -1.00071 -1.00064 -1.00058
 (dLV/dLT)p        1.6868   1.6401   1.0232   1.0210   1.0190   1.0174
 Cp, KJ/(KG)(K)    7.0119   6.8589   2.4395   2.4144   2.3923   2.3726
 GAMMAs            1.1324   1.1290   1.1780   1.1793   1.1806   1.1817
 SON VEL,M/SEC     1254.6   1213.8    940.7    937.1    933.8    930.5
 MACH NUMBER        0.000    1.000    3.493    3.520    3.546    3.570

 PERFORMANCE PARAMETERS

 Ae/At                      1.0000   20.919   21.872   22.814   23.745
 CSTAR, M/SEC               1857.7   1857.7   1857.7   1857.7   1857.7
 CF                         0.6534   1.7687   1.7757   1.7822   1.7883
 Ivac, M/SEC                2288.9   3514.4   3524.5   3534.0   3542.8
 Isp, M/SEC                 1213.8   3285.8   3298.8   3310.9   3322.3

 MASS FRACTIONS

 *CO              0.23410  0.22305  0.14954  0.14897  0.14842  0.14790
 *CO2             0.25558  0.27298  0.38853  0.38942  0.39028  0.39110
 COOH             0.00004  0.00002  0.00000  0.00000  0.00000  0.00000
 *H               0.00107  0.00092  0.00006  0.00005  0.00005  0.00004
 HCO              0.00002  0.00001  0.00000  0.00000  0.00000  0.00000
 HO2              0.00022  0.00014  0.00000  0.00000  0.00000  0.00000
 *H2              0.00768  0.00724  0.00613  0.00617  0.00620  0.00624
 HCOOH            0.00001  0.00000  0.00000  0.00000  0.00000  0.00000
 H2O              0.40271  0.41259  0.45456  0.45433  0.45411  0.45387
 H2O2             0.00004  0.00003  0.00000  0.00000  0.00000  0.00000
 *O               0.00784  0.00609  0.00001  0.00001  0.00001  0.00001
 *OH              0.05550  0.04700  0.00109  0.00098  0.00088  0.00079
 *O2              0.03518  0.02994  0.00008  0.00007  0.00006  0.00005

  * THERMODYNAMIC PROPERTIES FITTED TO 20000.K

    PRODUCTS WHICH WERE CONSIDERED BUT WHOSE MASS FRACTIONS
    WERE LESS THAN 5.000000E-06 FOR ALL ASSIGNED CONDITIONS

 *C              *CH             CH2             CH3             CH2OH          
 CH3O            CH4             CH3OH           CH3OOH          *C2            
 C2H             C2H2,acetylene  C2H2,vinylidene CH2CO,ketene    O(CH)2O        
 HO(CO)2OH       C2H3,vinyl      CH3CO,acetyl    C2H4            C2H4O,ethylen-o
 CH3CHO,ethanal  CH3COOH         OHCH2COOH       C2H5            C2H6           
 C2H5OH          CH3OCH3         CH3O2CH3        C2O             *C3            
 C3H3,1-propynl  C3H3,2-propynl  C3H4,allene     C3H4,propyne    C3H4,cyclo-    
 C3H5,allyl      C3H6,propylene  C3H6,cyclo-     C3H6O,propylox  C3H6O,acetone  
 C3H6O,propanal  C3H7,n-propyl   C3H7,i-propyl   C3H8            C3H8O,1propanol
 C3H8O,2propanol C3O2            *C4             C4H2,butadiyne  C4H4,1,3-cyclo-
 C4H6,butadiene  C4H6,1butyne    C4H6,2butyne    C4H6,cyclo-     C4H8,1-butene  
 C4H8,cis2-buten C4H8,tr2-butene C4H8,isobutene  C4H8,cyclo-     (CH3COOH)2     
 C4H9,n-butyl    C4H9,i-butyl    C4H9,s-butyl    C4H9,t-butyl    C4H10,n-butane 
 C4H10,isobutane *C5             C5H6,1,3cyclo-  C5H8,cyclo-     C5H10,1-pentene
 C5H10,cyclo-    C5H11,pentyl    C5H11,t-pentyl  C5H12,n-pentane C5H12,i-pentane
 CH3C(CH3)2CH3   C6H2            C6H5,phenyl     C6H5O,phenoxy   C6H6           
 C6H5OH,phenol   C6H10,cyclo-    C6H12,1-hexene  C6H12,cyclo-    C6H13,n-hexyl  
 C6H14,n-hexane  C7H7,benzyl     C7H8            C7H8O,cresol-mx C7H14,1-heptene
 C7H15,n-heptyl  C7H16,n-heptane C7H16,2-methylh C8H8,styrene    C8H10,ethylbenz
 C8H16,1-octene  C8H17,n-octyl   C8H18,n-octane  C8H18,isooctane C9H19,n-nonyl  
 C10H8,naphthale C10H21,n-decyl  C11H21          C12H9,o-bipheny C12H10,biphenyl
 HCCO            HCHO,formaldehy (HCOOH)2        O3              THDCPD,endo    
 THDCPD,exo      C(gr)           CH3OH(L)        C2H5OH(L)       C6H14(L),n-hexa
 C6H6(L)         H2O(cr)         H2O(L)         

 NOTE. WEIGHT FRACTION OF FUEL IN TOTAL FUELS AND OF OXIDANT IN TOTAL OXIDANTS

 POINT ITN      T            C           H           O 
 Pinf/Pt = 1.730497
 Pinf/Pt = 1.728228

              THEORETICAL ROCKET PERFORMANCE ASSUMING EQUILIBRIUM

           COMPOSITION DURING EXPANSION FROM INFINITE AREA COMBUSTOR

 Pin =  1450.4 PSIA
 CASE = _______________

             REACTANT                    WT FRACTION      ENERGY      TEMP
                                          (SEE NOTE)     KJ/KG-MOL      K  
 FUEL        CH4                          1.0000000    -74533.907    300.000
 OXIDANT     O2(L)                        1.0000000    -12979.000     90.170

 O/F=    3.40000  %FUEL= 22.727273  R,EQ.RATIO= 1.173313  PHI,EQ.RATIO= 1.173313

                 CHAMBER   THROAT     EXIT     EXIT     EXIT     EXIT     EXIT     EXIT
 Pinf/P            1.0000   1.7282   110.00   120.00   130.00   140.00   150.00   160.00
 P, BAR            100.00   57.863  0.90909  0.83333  0.76923  0.71429  0.66667  0.62500
 T, K             3628.81  3450.38  2257.85  2230.51  2205.27  2181.84  2160.01  2139.57
 RHO, KG/CU M    7.1752 0 4.4236 0 1.1361-1 1.0546-1 9.8492-2 9.2463-2 8.7190-2 8.2536-2
 H, KJ/KG        -1369.34 -2108.06 -6436.82 -6506.01 -6568.89 -6626.46 -6679.48 -6728.59
 U, KJ/KG        -2763.02 -3416.10 -7237.01 -7296.21 -7349.90 -7398.97 -7444.10 -7485.83
 G, KJ/KG        -45269.7 -43849.8 -33751.7 -33490.1 -33247.6 -33021.8 -32810.7 -32612.6
 S, KJ/(KG)(K)    12.0977  12.0977  12.0977  12.0977  12.0977  12.0977  12.0977  12.0977

 M, (1/n)          21.649   21.932   23.461   23.470   23.477   23.483   23.488   23.492
 (dLV/dLP)t      -1.03862 -1.03408 -1.00158 -1.00136 -1.00119 -1.00104 -1.00092 -1.00082
 (dLV/dLT)p        1.6747   1.6281   1.0446   1.0388   1.0341   1.0301   1.0268   1.0240
 Cp, KJ/(KG)(K)    6.9097   6.7563   2.6655   2.6068   2.5575   2.5157   2.4799   2.4489
 GAMMAs            1.1329   1.1295   1.1675   1.1700   1.1722   1.1741   1.1759   1.1775
 SON VEL,M/SEC     1256.5   1215.5    966.6    961.5    956.8    952.4    948.2    944.3
 MACH NUMBER        0.000    1.000    3.294    3.333    3.370    3.405    3.437    3.467

 PERFORMANCE PARAMETERS

 Ae/At                      1.0000   14.866   15.907   16.929   17.934   18.923   19.898
 CSTAR, M/SEC               1859.8   1859.8   1859.8   1859.8   1859.8   1859.8   1859.8
 CF                         0.6536   1.7118   1.7234   1.7339   1.7435   1.7523   1.7604
 Ivac, M/SEC                2291.6   3434.9   3451.7   3467.0   3480.8   3493.5   3505.2
 Isp, M/SEC                 1215.5   3183.5   3205.2   3224.8   3242.6   3258.9   3273.9

 MASS FRACTIONS

 *CO              0.23332  0.22228  0.15370  0.15285  0.15208  0.15136  0.15069  0.15005
 *CO2             0.25680  0.27418  0.38199  0.38332  0.38454  0.38567  0.38672  0.38772
 COOH             0.00004  0.00002  0.00000  0.00000  0.00000  0.00000  0.00000  0.00000
 *H               0.00104  0.00089  0.00009  0.00008  0.00008  0.00007  0.00006  0.00006
 HCO              0.00002  0.00001  0.00000  0.00000  0.00000  0.00000  0.00000  0.00000
 HO2              0.00023  0.00014  0.00000  0.00000  0.00000  0.00000  0.00000  0.00000
 *H2              0.00762  0.00718  0.00590  0.00594  0.00598  0.00602  0.00606  0.00610
 HCOOH            0.00001  0.00000  0.00000  0.00000  0.00000  0.00000  0.00000  0.00000
 H2O              0.40377  0.41358  0.45573  0.45560  0.45543  0.45524  0.45504  0.45482
 H2O2             0.00004  0.00003  0.00000  0.00000  0.00000  0.00000  0.00000  0.00000
 *O               0.00761  0.00590  0.00004  0.00003  0.00002  0.00002  0.00002  0.00001
 *OH              0.05498  0.04649  0.00226  0.00195  0.00169  0.00148  0.00130  0.00115
 *O2              0.03450  0.02928  0.00029  0.00023  0.00018  0.00014  0.00011  0.00009

  * THERMODYNAMIC PROPERTIES FITTED TO 20000.K

    PRODUCTS WHICH WERE CONSIDERED BUT WHOSE MASS FRACTIONS
    WERE LESS THAN 5.000000E-06 FOR ALL ASSIGNED CONDITIONS

 *C              *CH             CH2             CH3             CH2OH          
 CH3O            CH4             CH3OH           CH3OOH          *C2            
 C2H             C2H2,acetylene  C2H2,vinylidene CH2CO,ketene    O(CH)2O        
 HO(CO)2OH       C2H3,vinyl      CH3CO,acetyl    C2H4            C2H4O,ethylen-o
 CH3CHO,ethanal  CH3COOH         OHCH2COOH       C2H5            C2H6           
 C2H5OH          CH3OCH3         CH3O2CH3        C2O             *C3            
 C3H3,1-propynl  C3H3,2-propynl  C3H4,allene     C3H4,propyne    C3H4,cyclo-    
 C3H5,allyl      C3H6,propylene  C3H6,cyclo-     C3H6O,propylox  C3H6O,acetone  
 C3H6O,propanal  C3H7,n-propyl   C3H7,i-propyl   C3H8            C3H8O,1propanol
 C3H8O,2propanol C3O2            *C4             C4H2,butadiyne  C4H4,1,3-cyclo-
 C4H6,butadiene  C4H6,1butyne    C4H6,2butyne    C4H6,cyclo-     C4H8,1-butene  
 C4H8,cis2-buten C4H8,tr2-butene C4H8,isobutene  C4H8,cyclo-     (CH3COOH)2     
 C4H9,n-butyl    C4H9,i-butyl    C4H9,s-butyl    C4H9,t-butyl    C4H10,n-butane 
 C4H10,isobutane *C5             C5H6,1,3cyclo-  C5H8,cyclo-     C5H10,1-pentene
 C5H10,cyclo-    C5H11,pentyl    C5H11,t-pentyl  C5H12,n-pentane C5H12,i-pentane
 CH3C(CH3)2CH3   C6H2            C6H5,phenyl     C6H5O,phenoxy   C6H6           
 C6H5OH,phenol   C6H10,cyclo-    C6H12,1-hexene  C6H12,cyclo-    C6H13,n-hexyl  
 C6H14,n-hexane  C7H7,benzyl     C7H8            C7H8O,cresol-mx C7H14,1-heptene
 C7H15,n-heptyl  C7H16,n-heptane C7H16,2-methylh C8H8,styrene    C8H10,ethylbenz
 C8H16,1-octene  C8H17,n-octyl   C8H18,n-octane  C8H18,isooctane C9H19,n-nonyl  
 C10H8,naphthale C10H21,n-decyl  C11H21          C12H9,o-bipheny C12H10,biphenyl
 HCCO            HCHO,formaldehy (HCOOH)2        O3              THDCPD,endo    
 THDCPD,exo      C(gr)           CH3OH(L)        C2H5OH(L)       C6H14(L),n-hexa
 C6H6(L)         H2O(cr)         H2O(L)         

 NOTE. WEIGHT FRACTION OF FUEL IN TOTAL FUELS AND OF OXIDANT IN TOTAL OXIDANTS

              THEORETICAL ROCKET PERFORMANCE ASSUMING EQUILIBRIUM

           COMPOSITION DURING EXPANSION FROM INFINITE AREA COMBUSTOR

 Pin =  1450.4 PSIA
 CASE = _______________

             REACTANT                    WT FRACTION      ENERGY      TEMP
                                          (SEE NOTE)     KJ/KG-MOL      K  
 FUEL        CH4                          1.0000000    -74533.907    300.000
 OXIDANT     O2(L)                        1.0000000    -12979.000     90.170

 O/F=    3.40000  %FUEL= 22.727273  R,EQ.RATIO= 1.173313  PHI,EQ.RATIO= 1.173313

                 CHAMBER   THROAT     EXIT     EXIT     EXIT     EXIT
 Pinf/P            1.0000   1.7282   170.00   180.00   190.00   200.00
 P, BAR            100.00   57.863  0.58824  0.55556  0.52632  0.50000
 T, K             3628.81  3450.38  2120.38  2102.30  2085.22  2069.03
 RHO, KG/CU M    7.1752 0 4.4236 0 7.8397-2 7.4688-2 7.1346-2 6.8315-2
 H, KJ/KG        -1369.34 -2108.06 -6774.29 -6816.99 -6857.04 -6894.73
 U, KJ/KG        -2763.02 -3416.10 -7524.62 -7560.82 -7594.74 -7626.63
 G, KJ/KG        -45269.7 -43849.8 -32426.1 -32250.0 -32083.4 -31925.3
 S, KJ/(KG)(K)    12.0977  12.0977  12.0977  12.0977  12.0977  12.0977

 M, (1/n)          21.649   21.932   23.496   23.499   23.502   23.505
 (dLV/dLP)t      -1.03862 -1.03408 -1.00073 -1.00066 -1.00059 -1.00054
 (dLV/dLT)p        1.6747   1.6281   1.0216   1.0195   1.0177   1.0161
 Cp, KJ/(KG)(K)    6.9097   6.7563   2.4220   2.3984   2.3776   2.3590
 GAMMAs            1.1329   1.1295   1.1789   1.1802   1.1814   1.1824
 SON VEL,M/SEC     1256.5   1215.5    940.5    936.9    933.5    930.3
 MACH NUMBER        0.000    1.000    3.496    3.523    3.549    3.573

 PERFORMANCE PARAMETERS

 Ae/At                      1.0000   20.860   21.810   22.749   23.676
 CSTAR, M/SEC               1859.8   1859.8   1859.8   1859.8   1859.8
 CF                         0.6536   1.7678   1.7748   1.7813   1.7874
 Ivac, M/SEC                2291.6   3516.1   3526.2   3535.6   3544.4
 Isp, M/SEC                 1215.5   3287.8   3300.8   3312.9   3324.3

 MASS FRACTIONS

 *CO              0.23332  0.22228  0.14945  0.14888  0.14834  0.14781
 *CO2             0.25680  0.27418  0.38866  0.38956  0.39041  0.39123
 COOH             0.00004  0.00002  0.00000  0.00000  0.00000  0.00000
 *H               0.00104  0.00089  0.00005  0.00005  0.00005  0.00004
 HCO              0.00002  0.00001  0.00000  0.00000  0.00000  0.00000
 HO2              0.00023  0.00014  0.00000  0.00000  0.00000  0.00000
 *H2              0.00762  0.00718  0.00614  0.00617  0.00621  0.00624
 HCOOH            0.00001  0.00000  0.00000  0.00000  0.00000  0.00000
 H2O              0.40377  0.41358  0.45459  0.45436  0.45412  0.45389
 H2O2             0.00004  0.00003  0.00000  0.00000  0.00000  0.00000
 *O               0.00761  0.00590  0.00001  0.00001  0.00001  0.00001
 *OH              0.05498  0.04649  0.00102  0.00091  0.00082  0.00073
 *O2              0.03450  0.02928  0.00007  0.00006  0.00005  0.00004

  * THERMODYNAMIC PROPERTIES FITTED TO 20000.K

    PRODUCTS WHICH WERE CONSIDERED BUT WHOSE MASS FRACTIONS
    WERE LESS THAN 5.000000E-06 FOR ALL ASSIGNED CONDITIONS

 *C              *CH             CH2             CH3             CH2OH          
 CH3O            CH4             CH3OH           CH3OOH          *C2            
 C2H             C2H2,acetylene  C2H2,vinylidene CH2CO,ketene    O(CH)2O        
 HO(CO)2OH       C2H3,vinyl      CH3CO,acetyl    C2H4            C2H4O,ethylen-o
 CH3CHO,ethanal  CH3COOH         OHCH2COOH       C2H5            C2H6           
 C2H5OH          CH3OCH3         CH3O2CH3        C2O             *C3            
 C3H3,1-propynl  C3H3,2-propynl  C3H4,allene     C3H4,propyne    C3H4,cyclo-    
 C3H5,allyl      C3H6,propylene  C3H6,cyclo-     C3H6O,propylox  C3H6O,acetone  
 C3H6O,propanal  C3H7,n-propyl   C3H7,i-propyl   C3H8            C3H8O,1propanol
 C3H8O,2propanol C3O2            *C4             C4H2,butadiyne  C4H4,1,3-cyclo-
 C4H6,butadiene  C4H6,1butyne    C4H6,2butyne    C4H6,cyclo-     C4H8,1-butene  
 C4H8,cis2-buten C4H8,tr2-butene C4H8,isobutene  C4H8,cyclo-     (CH3COOH)2     
 C4H9,n-butyl    C4H9,i-butyl    C4H9,s-butyl    C4H9,t-butyl    C4H10,n-butane 
 C4H10,isobutane *C5             C5H6,1,3cyclo-  C5H8,cyclo-     C5H10,1-pentene
 C5H10,cyclo-    C5H11,pentyl    C5H11,t-pentyl  C5H12,n-pentane C5H12,i-pentane
 CH3C(CH3)2CH3   C6H2            C6H5,phenyl     C6H5O,phenoxy   C6H6           
 C6H5OH,phenol   C6H10,cyclo-    C6H12,1-hexene  C6H12,cyclo-    C6H13,n-hexyl  
 C6H14,n-hexane  C7H7,benzyl     C7H8            C7H8O,cresol-mx C7H14,1-heptene
 C7H15,n-heptyl  C7H16,n-heptane C7H16,2-methylh C8H8,styrene    C8H10,ethylbenz
 C8H16,1-octene  C8H17,n-octyl   C8H18,n-octane  C8H18,isooctane C9H19,n-nonyl  
 C10H8,naphthale C10H21,n-decyl  C11H21          C12H9,o-bipheny C12H10,biphenyl
 HCCO            HCHO,formaldehy (HCOOH)2        O3              THDCPD,endo    
 THDCPD,exo      C(gr)           CH3OH(L)        C2H5OH(L)       C6H14(L),n-hexa
 C6H6(L)         H2O(cr)         H2O(L)         

 NOTE. WEIGHT FRACTION OF FUEL IN TOTAL FUELS AND OF OXIDANT IN TOTAL OXIDANTS